REMARK  6 active torsions:
REMARK  status: ('A' for Active; 'I' for Inactive)
REMARK    1  A    between atoms: S_1  and  N_8 
REMARK    2  A    between atoms: S_1  and  C_15 
REMARK    3  A    between atoms: O_3  and  C_19 
REMARK    4  A    between atoms: N_7  and  C_11 
REMARK       I    between atoms: N_7  and  C_18 
REMARK    5  A    between atoms: C_10  and  C_11 
REMARK    6  A    between atoms: C_13  and  C_18 
ROOT
ATOM      1  S           0      -5.845  -1.072   0.929  0.00  0.00     0.256 S 
ATOM      2  O           0      -6.607  -0.019   1.585  0.00  0.00    -0.201 OA
ATOM      3  O           0      -6.516  -1.995   0.026  0.00  0.00    -0.201 OA
ENDROOT
BRANCH   1   4
ATOM      4  N           0      -5.016  -1.975   2.120  0.00  0.00    -0.324 N 
ATOM      5  H           0      -5.010  -2.998   2.024  0.00  0.00     0.169 HD
ATOM      6  H           0      -5.073  -1.648   3.092  0.00  0.00     0.169 HD
ENDBRANCH   1   4
BRANCH   1   7
ATOM      7  C           0      -4.509  -0.337   0.079  0.00  0.00     0.079 A 
ATOM      8  C           0      -3.930  -0.990  -1.009  0.00  0.00     0.026 A 
ATOM      9  C           0      -2.862  -0.403  -1.687  0.00  0.00     0.010 A 
ATOM     10  C           0      -2.372   0.838  -1.277  0.00  0.00    -0.040 A 
ATOM     11  C           0      -2.951   1.491  -0.189  0.00  0.00     0.010 A 
ATOM     12  C           0      -4.019   0.904   0.489  0.00  0.00     0.026 A 
BRANCH  10  13
ATOM     13  C           0      -1.222   1.471  -2.009  0.00  0.00     0.161 C 
BRANCH  13  14
ATOM     14  N           0       0.056   1.092  -1.452  0.00  0.00    -0.351 N 
ATOM     15  C           0       0.709   1.806  -0.421  0.00  0.00     0.275 C 
ATOM     16  O           0       0.149   2.833   0.044  0.00  0.00    -0.265 OA
ATOM     17  H           0       0.497   0.250  -1.812  0.00  0.00     0.163 HD
BRANCH  15  18
ATOM     18  C           0       1.951   1.294   0.046  0.00  0.00     0.144 A 
ATOM     19  O           0       2.426   0.158  -0.527  0.00  0.00    -0.301 OA
ATOM     20  C           0       3.612  -0.127   0.082  0.00  0.00     0.119 A 
ATOM     21  C           0       3.898   0.831   1.049  0.00  0.00     0.003 A 
ATOM     22  C           0       4.433  -1.215  -0.209  0.00  0.00     0.102 A 
ATOM     23  C           0       2.814   1.747   1.017  0.00  0.00     0.057 A 
ATOM     24  C           0       5.088   0.705   1.787  0.00  0.00     0.014 A 
ATOM     25  C           0       5.935  -0.379   1.518  0.00  0.00     0.004 A 
ATOM     26  C           0       5.611  -1.321   0.537  0.00  0.00     0.040 A 
BRANCH  22  27
ATOM     27  O           0       4.121  -2.135  -1.165  0.00  0.00    -0.353 OA
ATOM     28  C           0       5.046  -3.201  -1.365  0.00  0.00     0.210 C 
ENDBRANCH  22  27
ENDBRANCH  15  18
ENDBRANCH  13  14
ENDBRANCH  10  13
ENDBRANCH   1   7
TORSDOF 6
