untitled
  ChemPy            3D                             0

 28 30  0  0  1  0  0  0  0  0999 V2000
   58.7450   51.6590  -11.5050 C   0  0  0  0  0  0  0  0  0  0  0  0
   60.6640   51.4370  -10.0560 C   0  0  0  0  0  0  0  0  0  0  0  0
   52.3690   54.2000  -15.5080 C   0  0  0  0  0  0  0  0  0  0  0  0
   53.5100   54.3350  -13.3820 C   0  0  0  0  0  0  0  0  0  0  0  0
   59.2730   51.4110  -10.2260 C   0  0  0  0  0  0  0  0  0  0  0  0
   51.5310   55.2480  -15.1250 C   0  0  0  0  0  0  0  0  0  0  0  0
   52.6720   55.3820  -12.9990 C   0  0  0  0  0  0  0  0  0  0  0  0
   53.3590   53.7440  -14.6360 C   0  0  0  0  0  0  0  0  0  0  0  0
   61.5170   51.7030  -11.1320 C   0  0  0  0  0  0  0  0  0  0  0  0
   57.4460   51.7220  -12.0730 C   0  0  0  0  0  0  0  0  0  0  0  0
   51.6820   55.8390  -13.8710 C   0  0  0  0  0  0  0  0  0  0  0  0
   61.0130   51.9530  -12.4120 C   0  0  0  0  0  0  0  0  0  0  0  0
   59.6270   51.9200  -12.5480 C   0  0  0  0  0  0  0  0  0  0  0  0
   57.6180   52.0130  -13.4070 C   0  0  0  0  0  0  0  0  0  0  0  0
   54.2630   52.6160  -15.0490 C   0  0  0  0  0  0  0  0  0  0  0  0
   55.0840   52.3930  -13.1100 H   0  0  0  0  0  0  0  0  0  0  0  0
   51.6940   58.7570  -12.0150 H   0  0  0  0  0  0  0  0  0  0  0  0
   52.1950   57.1590  -11.6120 H   0  0  0  0  0  0  0  0  0  0  0  0
   50.6500   58.1590  -14.4390 O   0  0  0  0  0  0  0  0  0  0  0  0
   49.3650   56.5870  -12.9480 O   0  0  0  0  0  0  0  0  0  0  0  0
   63.1140   52.7900  -13.1480 C   0  0  0  0  0  0  0  0  0  0  0  0
   50.6330   57.1490  -13.3910 S   0  0  0  0  0  0  0  0  0  0  0  0
   56.9820   52.2200  -15.6800 O   0  0  0  0  0  0  0  0  0  0  0  0
   56.6780   52.1950  -14.4590 C   0  0  0  0  0  0  0  0  0  0  0  0
   58.9380   52.1350  -13.7050 O   0  0  0  0  0  0  0  0  0  0  0  0
   51.4700   57.7540  -12.0290 N   0  0  0  0  0  0  0  0  0  0  0  0
   55.3250   52.3900  -14.0970 N   0  0  0  0  0  0  0  0  0  0  0  0
   61.8480   52.2120  -13.4580 O   0  0  0  0  0  0  0  0  0  0  0  0
  1  5  1  0  0  0  0
  1 10  1  0  0  0  0
  2  9  1  0  0  0  0
  3  8  1  0  0  0  0
  4  7  1  0  0  0  0
  5  2  1  0  0  0  0
  6  3  1  0  0  0  0
  8  4  1  0  0  0  0
  8 15  1  0  0  0  0
 11  6  1  0  0  0  0
 11  7  1  0  0  0  0
 12  9  1  0  0  0  0
 12 28  1  0  0  0  0
 13  1  1  0  0  0  0
 13 12  1  0  0  0  0
 14 10  1  0  0  0  0
 14 25  1  0  0  0  0
 15 27  1  0  0  0  0
 22 11  1  0  0  0  0
 22 19  1  0  0  0  0
 22 20  1  0  0  0  0
 22 26  1  0  0  0  0
 24 14  1  0  0  0  0
 24 23  1  0  0  0  0
 25 13  1  0  0  0  0
 26 17  1  0  0  0  0
 26 18  1  0  0  0  0
 27 16  1  0  0  0  0
 27 24  1  0  0  0  0
 28 21  1  0  0  0  0
M  END
