MODEL 1
REMARK VINA RESULT:      -6.7      0.000      0.000
REMARK  6 active torsions:
REMARK  status: ('A' for Active; 'I' for Inactive)
REMARK    1  A    between atoms: S_1  and  N_8 
REMARK    2  A    between atoms: S_1  and  C_15 
REMARK    3  A    between atoms: O_3  and  C_19 
REMARK    4  A    between atoms: N_7  and  C_11 
REMARK       I    between atoms: N_7  and  C_18 
REMARK    5  A    between atoms: C_10  and  C_11 
REMARK    6  A    between atoms: C_13  and  C_18 
ROOT
ATOM      1  S           0      50.633  57.149 -13.391  0.00  0.00     0.256 S 
ATOM      2  O           0      50.650  58.159 -14.439  0.00  0.00    -0.201 OA
ATOM      3  O           0      49.365  56.587 -12.948  0.00  0.00    -0.201 OA
ENDROOT
BRANCH   1   4
ATOM      4  N           0      51.470  57.754 -12.029  0.00  0.00    -0.324 N 
ATOM      5  H           0      51.694  58.757 -12.015  0.00  0.00     0.169 HD
ATOM      6  H           0      52.195  57.159 -11.612  0.00  0.00     0.169 HD
ENDBRANCH   1   4
BRANCH   1   7
ATOM      7  C           0      51.682  55.839 -13.871  0.00  0.00     0.079 A 
ATOM      8  C           0      51.531  55.248 -15.125  0.00  0.00     0.026 A 
ATOM      9  C           0      52.369  54.200 -15.508  0.00  0.00     0.010 A 
ATOM     10  C           0      53.359  53.744 -14.636  0.00  0.00    -0.040 A 
ATOM     11  C           0      53.510  54.335 -13.382  0.00  0.00     0.010 A 
ATOM     12  C           0      52.672  55.382 -12.999  0.00  0.00     0.026 A 
BRANCH  10  13
ATOM     13  C           0      54.263  52.616 -15.049  0.00  0.00     0.161 C 
BRANCH  13  14
ATOM     14  N           0      55.325  52.390 -14.097  0.00  0.00    -0.351 N 
ATOM     15  C           0      56.678  52.195 -14.459  0.00  0.00     0.275 C 
ATOM     16  O           0      56.982  52.220 -15.680  0.00  0.00    -0.265 OA
ATOM     17  H           0      55.084  52.393 -13.110  0.00  0.00     0.163 HD
BRANCH  15  18
ATOM     18  C           0      57.618  52.013 -13.407  0.00  0.00     0.144 A 
ATOM     19  O           0      58.938  52.135 -13.705  0.00  0.00    -0.301 OA
ATOM     20  C           0      59.627  51.920 -12.548  0.00  0.00     0.119 A 
ATOM     21  C           0      58.745  51.659 -11.505  0.00  0.00     0.003 A 
ATOM     22  C           0      61.013  51.953 -12.412  0.00  0.00     0.102 A 
ATOM     23  C           0      57.446  51.722 -12.073  0.00  0.00     0.057 A 
ATOM     24  C           0      59.273  51.411 -10.226  0.00  0.00     0.014 A 
ATOM     25  C           0      60.664  51.437 -10.056  0.00  0.00     0.004 A 
ATOM     26  C           0      61.517  51.703 -11.132  0.00  0.00     0.040 A 
BRANCH  22  27
ATOM     27  O           0      61.848  52.212 -13.458  0.00  0.00    -0.353 OA
ATOM     28  C           0      63.114  52.790 -13.148  0.00  0.00     0.210 C 
ENDBRANCH  22  27
ENDBRANCH  15  18
ENDBRANCH  13  14
ENDBRANCH  10  13
ENDBRANCH   1   7
TORSDOF 6
ENDMDL
MODEL 2
REMARK VINA RESULT:      -6.6     28.230     30.387
REMARK  6 active torsions:
REMARK  status: ('A' for Active; 'I' for Inactive)
REMARK    1  A    between atoms: S_1  and  N_8 
REMARK    2  A    between atoms: S_1  and  C_15 
REMARK    3  A    between atoms: O_3  and  C_19 
REMARK    4  A    between atoms: N_7  and  C_11 
REMARK       I    between atoms: N_7  and  C_18 
REMARK    5  A    between atoms: C_10  and  C_11 
REMARK    6  A    between atoms: C_13  and  C_18 
ROOT
ATOM      1  S           0      54.010  64.968  17.681  0.00  0.00     0.256 S 
ATOM      2  O           0      52.853  65.841  17.539  0.00  0.00    -0.201 OA
ATOM      3  O           0      54.728  64.918  18.945  0.00  0.00    -0.201 OA
ENDROOT
BRANCH   1   4
ATOM      4  N           0      55.122  65.322  16.432  0.00  0.00    -0.324 N 
ATOM      5  H           0      55.185  64.660  15.649  0.00  0.00     0.169 HD
ATOM      6  H           0      56.022  65.738  16.699  0.00  0.00     0.169 HD
ENDBRANCH   1   4
BRANCH   1   7
ATOM      7  C           0      53.531  63.345  17.250  0.00  0.00     0.079 A 
ATOM      8  C           0      54.483  62.435  16.790  0.00  0.00     0.026 A 
ATOM      9  C           0      54.100  61.140  16.445  0.00  0.00     0.010 A 
ATOM     10  C           0      52.764  60.753  16.559  0.00  0.00    -0.040 A 
ATOM     11  C           0      51.812  61.663  17.018  0.00  0.00     0.010 A 
ATOM     12  C           0      52.195  62.959  17.364  0.00  0.00     0.026 A 
BRANCH  10  13
ATOM     13  C           0      52.352  59.356  16.188  0.00  0.00     0.161 C 
BRANCH  13  14
ATOM     14  N           0      51.386  59.338  15.114  0.00  0.00    -0.351 N 
ATOM     15  C           0      50.040  58.933  15.271  0.00  0.00     0.275 C 
ATOM     16  O           0      49.654  58.567  16.411  0.00  0.00    -0.265 OA
ATOM     17  H           0      51.693  59.655  14.198  0.00  0.00     0.163 HD
BRANCH  15  18
ATOM     18  C           0      49.199  58.997  14.126  0.00  0.00     0.144 A 
ATOM     19  O           0      48.846  57.828  13.531  0.00  0.00    -0.301 OA
ATOM     20  C           0      48.049  58.147  12.472  0.00  0.00     0.119 A 
ATOM     21  C           0      47.891  59.527  12.388  0.00  0.00     0.003 A 
ATOM     22  C           0      47.468  57.238  11.590  0.00  0.00     0.102 A 
ATOM     23  C           0      48.642  60.067  13.465  0.00  0.00     0.057 A 
ATOM     24  C           0      47.097  60.050  11.352  0.00  0.00     0.014 A 
ATOM     25  C           0      46.499  59.160  10.449  0.00  0.00     0.004 A 
ATOM     26  C           0      46.683  57.779  10.568  0.00  0.00     0.040 A 
BRANCH  22  27
ATOM     27  O           0      47.644  55.891  11.703  0.00  0.00    -0.353 OA
ATOM     28  C           0      46.587  55.147  12.304  0.00  0.00     0.210 C 
ENDBRANCH  22  27
ENDBRANCH  15  18
ENDBRANCH  13  14
ENDBRANCH  10  13
ENDBRANCH   1   7
TORSDOF 6
ENDMDL
MODEL 3
REMARK VINA RESULT:      -6.5      6.551     10.900
REMARK  6 active torsions:
REMARK  status: ('A' for Active; 'I' for Inactive)
REMARK    1  A    between atoms: S_1  and  N_8 
REMARK    2  A    between atoms: S_1  and  C_15 
REMARK    3  A    between atoms: O_3  and  C_19 
REMARK    4  A    between atoms: N_7  and  C_11 
REMARK       I    between atoms: N_7  and  C_18 
REMARK    5  A    between atoms: C_10  and  C_11 
REMARK    6  A    between atoms: C_13  and  C_18 
ROOT
ATOM      1  S           0      60.563  43.208  -7.122  0.00  0.00     0.256 S 
ATOM      2  O           0      59.391  42.584  -7.720  0.00  0.00    -0.201 OA
ATOM      3  O           0      61.792  42.444  -6.973  0.00  0.00    -0.201 OA
ENDROOT
BRANCH   1   4
ATOM      4  N           0      60.128  43.850  -5.599  0.00  0.00    -0.324 N 
ATOM      5  H           0      59.817  44.829  -5.566  0.00  0.00     0.169 HD
ATOM      6  H           0      60.681  43.561  -4.784  0.00  0.00     0.169 HD
ENDBRANCH   1   4
BRANCH   1   7
ATOM      7  C           0      60.922  44.669  -8.009  0.00  0.00     0.079 A 
ATOM      8  C           0      61.373  45.802  -7.333  0.00  0.00     0.026 A 
ATOM      9  C           0      61.658  46.969  -8.041  0.00  0.00     0.010 A 
ATOM     10  C           0      61.493  47.003  -9.427  0.00  0.00    -0.040 A 
ATOM     11  C           0      61.042  45.869 -10.103  0.00  0.00     0.010 A 
ATOM     12  C           0      60.757  44.702  -9.394  0.00  0.00     0.026 A 
BRANCH  10  13
ATOM     13  C           0      61.802  48.260 -10.190  0.00  0.00     0.161 C 
BRANCH  13  14
ATOM     14  N           0      60.632  49.086 -10.382  0.00  0.00    -0.351 N 
ATOM     15  C           0      60.633  50.297 -11.112  0.00  0.00     0.275 C 
ATOM     16  O           0      61.714  50.684 -11.628  0.00  0.00    -0.265 OA
ATOM     17  H           0      59.755  48.761  -9.984  0.00  0.00     0.163 HD
BRANCH  15  18
ATOM     18  C           0      59.396  50.986 -11.240  0.00  0.00     0.144 A 
ATOM     19  O           0      58.980  51.319 -12.489  0.00  0.00    -0.301 OA
ATOM     20  C           0      57.786  51.963 -12.351  0.00  0.00     0.119 A 
ATOM     21  C           0      57.435  52.041 -11.007  0.00  0.00     0.003 A 
ATOM     22  C           0      57.014  52.473 -13.393  0.00  0.00     0.102 A 
ATOM     23  C           0      58.486  51.405 -10.296  0.00  0.00     0.057 A 
ATOM     24  C           0      56.227  52.674 -10.665  0.00  0.00     0.014 A 
ATOM     25  C           0      55.428  53.198 -11.690  0.00  0.00     0.004 A 
ATOM     26  C           0      55.817  53.099 -13.030  0.00  0.00     0.040 A 
BRANCH  22  27
ATOM     27  O           0      57.389  52.378 -14.699  0.00  0.00    -0.353 OA
ATOM     28  C           0      56.381  52.012 -15.638  0.00  0.00     0.210 C 
ENDBRANCH  22  27
ENDBRANCH  15  18
ENDBRANCH  13  14
ENDBRANCH  10  13
ENDBRANCH   1   7
TORSDOF 6
ENDMDL
MODEL 4
REMARK VINA RESULT:      -6.4      6.509     10.898
REMARK  6 active torsions:
REMARK  status: ('A' for Active; 'I' for Inactive)
REMARK    1  A    between atoms: S_1  and  N_8 
REMARK    2  A    between atoms: S_1  and  C_15 
REMARK    3  A    between atoms: O_3  and  C_19 
REMARK    4  A    between atoms: N_7  and  C_11 
REMARK       I    between atoms: N_7  and  C_18 
REMARK    5  A    between atoms: C_10  and  C_11 
REMARK    6  A    between atoms: C_13  and  C_18 
ROOT
ATOM      1  S           0      60.354  43.468  -7.533  0.00  0.00     0.256 S 
ATOM      2  O           0      59.056  43.045  -8.038  0.00  0.00    -0.201 OA
ATOM      3  O           0      61.481  42.547  -7.573  0.00  0.00    -0.201 OA
ENDROOT
BRANCH   1   4
ATOM      4  N           0      60.164  44.033  -5.931  0.00  0.00    -0.324 N 
ATOM      5  H           0      61.012  44.153  -5.364  0.00  0.00     0.169 HD
ATOM      6  H           0      59.352  43.697  -5.400  0.00  0.00     0.169 HD
ENDBRANCH   1   4
BRANCH   1   7
ATOM      7  C           0      60.811  44.939  -8.353  0.00  0.00     0.079 A 
ATOM      8  C           0      61.371  45.995  -7.633  0.00  0.00     0.026 A 
ATOM      9  C           0      61.735  47.170  -8.289  0.00  0.00     0.010 A 
ATOM     10  C           0      61.539  47.292  -9.665  0.00  0.00    -0.040 A 
ATOM     11  C           0      60.979  46.237 -10.385  0.00  0.00     0.010 A 
ATOM     12  C           0      60.615  45.061  -9.730  0.00  0.00     0.026 A 
BRANCH  10  13
ATOM     13  C           0      61.933  48.559 -10.372  0.00  0.00     0.161 C 
BRANCH  13  14
ATOM     14  N           0      60.788  49.288 -10.865  0.00  0.00    -0.351 N 
ATOM     15  C           0      60.539  50.651 -10.580  0.00  0.00     0.275 C 
ATOM     16  O           0      61.360  51.270  -9.854  0.00  0.00    -0.265 OA
ATOM     17  H           0      60.138  48.794 -11.470  0.00  0.00     0.163 HD
BRANCH  15  18
ATOM     18  C           0      59.384  51.242 -11.162  0.00  0.00     0.144 A 
ATOM     19  O           0      58.292  51.413 -10.374  0.00  0.00    -0.301 OA
ATOM     20  C           0      57.330  51.990 -11.149  0.00  0.00     0.119 A 
ATOM     21  C           0      57.808  52.189 -12.440  0.00  0.00     0.003 A 
ATOM     22  C           0      56.048  52.337 -10.727  0.00  0.00     0.102 A 
ATOM     23  C           0      59.141  51.700 -12.437  0.00  0.00     0.057 A 
ATOM     24  C           0      56.954  52.777 -13.389  0.00  0.00     0.014 A 
ATOM     25  C           0      55.658  53.137 -12.995  0.00  0.00     0.004 A 
ATOM     26  C           0      55.215  52.920 -11.687  0.00  0.00     0.040 A 
BRANCH  22  27
ATOM     27  O           0      55.612  52.128  -9.453  0.00  0.00    -0.353 OA
ATOM     28  C           0      54.598  51.143  -9.268  0.00  0.00     0.210 C 
ENDBRANCH  22  27
ENDBRANCH  15  18
ENDBRANCH  13  14
ENDBRANCH  10  13
ENDBRANCH   1   7
TORSDOF 6
ENDMDL
MODEL 5
REMARK VINA RESULT:      -6.4     29.146     32.353
REMARK  6 active torsions:
REMARK  status: ('A' for Active; 'I' for Inactive)
REMARK    1  A    between atoms: S_1  and  N_8 
REMARK    2  A    between atoms: S_1  and  C_15 
REMARK    3  A    between atoms: O_3  and  C_19 
REMARK    4  A    between atoms: N_7  and  C_11 
REMARK       I    between atoms: N_7  and  C_18 
REMARK    5  A    between atoms: C_10  and  C_11 
REMARK    6  A    between atoms: C_13  and  C_18 
ROOT
ATOM      1  S           0      82.565  76.210  -3.918  0.00  0.00     0.256 S 
ATOM      2  O           0      83.555  75.866  -4.929  0.00  0.00    -0.201 OA
ATOM      3  O           0      82.691  77.456  -3.177  0.00  0.00    -0.201 OA
ENDROOT
BRANCH   1   4
ATOM      4  N           0      82.443  74.919  -2.805  0.00  0.00    -0.324 N 
ATOM      5  H           0      82.895  74.030  -3.055  0.00  0.00     0.169 HD
ATOM      6  H           0      81.557  74.807  -2.299  0.00  0.00     0.169 HD
ENDBRANCH   1   4
BRANCH   1   7
ATOM      7  C           0      80.984  76.162  -4.658  0.00  0.00     0.079 A 
ATOM      8  C           0      80.612  75.067  -5.438  0.00  0.00     0.026 A 
ATOM      9  C           0      79.349  75.030  -6.029  0.00  0.00     0.010 A 
ATOM     10  C           0      78.458  76.087  -5.841  0.00  0.00    -0.040 A 
ATOM     11  C           0      78.830  77.181  -5.060  0.00  0.00     0.010 A 
ATOM     12  C           0      80.093  77.219  -4.469  0.00  0.00     0.026 A 
BRANCH  10  13
ATOM     13  C           0      77.097  76.045  -6.477  0.00  0.00     0.161 C 
BRANCH  13  14
ATOM     14  N           0      77.164  75.782  -7.896  0.00  0.00    -0.351 N 
ATOM     15  C           0      76.946  74.510  -8.472  0.00  0.00     0.275 C 
ATOM     16  O           0      76.676  73.545  -7.710  0.00  0.00    -0.265 OA
ATOM     17  H           0      77.360  76.566  -8.513  0.00  0.00     0.163 HD
BRANCH  15  18
ATOM     18  C           0      77.017  74.411  -9.889  0.00  0.00     0.144 A 
ATOM     19  O           0      77.171  73.176 -10.433  0.00  0.00    -0.301 OA
ATOM     20  C           0      77.211  73.342 -11.786  0.00  0.00     0.119 A 
ATOM     21  C           0      77.082  74.688 -12.109  0.00  0.00     0.003 A 
ATOM     22  C           0      77.359  72.322 -12.724  0.00  0.00     0.102 A 
ATOM     23  C           0      76.957  75.372 -10.872  0.00  0.00     0.057 A 
ATOM     24  C           0      77.100  75.057 -13.466  0.00  0.00     0.014 A 
ATOM     25  C           0      77.248  74.054 -14.434  0.00  0.00     0.004 A 
ATOM     26  C           0      77.375  72.711 -14.067  0.00  0.00     0.040 A 
BRANCH  22  27
ATOM     27  O           0      77.482  71.011 -12.371  0.00  0.00    -0.353 OA
ATOM     28  C           0      78.804  70.514 -12.178  0.00  0.00     0.210 C 
ENDBRANCH  22  27
ENDBRANCH  15  18
ENDBRANCH  13  14
ENDBRANCH  10  13
ENDBRANCH   1   7
TORSDOF 6
ENDMDL
MODEL 6
REMARK VINA RESULT:      -6.1     32.846     34.247
REMARK  6 active torsions:
REMARK  status: ('A' for Active; 'I' for Inactive)
REMARK    1  A    between atoms: S_1  and  N_8 
REMARK    2  A    between atoms: S_1  and  C_15 
REMARK    3  A    between atoms: O_3  and  C_19 
REMARK    4  A    between atoms: N_7  and  C_11 
REMARK       I    between atoms: N_7  and  C_18 
REMARK    5  A    between atoms: C_10  and  C_11 
REMARK    6  A    between atoms: C_13  and  C_18 
ROOT
ATOM      1  S           0      53.687  83.965  10.519  0.00  0.00     0.256 S 
ATOM      2  O           0      52.866  84.126  11.711  0.00  0.00    -0.201 OA
ATOM      3  O           0      54.926  84.717  10.388  0.00  0.00    -0.201 OA
ENDROOT
BRANCH   1   4
ATOM      4  N           0      52.720  84.256   9.140  0.00  0.00    -0.324 N 
ATOM      5  H           0      52.702  83.534   8.410  0.00  0.00     0.169 HD
ATOM      6  H           0      52.682  85.216   8.778  0.00  0.00     0.169 HD
ENDBRANCH   1   4
BRANCH   1   7
ATOM      7  C           0      54.045  82.268  10.323  0.00  0.00     0.079 A 
ATOM      8  C           0      53.446  81.543   9.292  0.00  0.00     0.026 A 
ATOM      9  C           0      53.730  80.187   9.136  0.00  0.00     0.010 A 
ATOM     10  C           0      54.615  79.554  10.011  0.00  0.00    -0.040 A 
ATOM     11  C           0      55.214  80.279  11.041  0.00  0.00     0.010 A 
ATOM     12  C           0      54.929  81.635  11.197  0.00  0.00     0.026 A 
BRANCH  10  13
ATOM     13  C           0      54.923  78.093   9.841  0.00  0.00     0.161 C 
BRANCH  13  14
ATOM     14  N           0      56.344  77.829   9.848  0.00  0.00    -0.351 N 
ATOM     15  C           0      56.933  76.706  10.474  0.00  0.00     0.275 C 
ATOM     16  O           0      56.182  75.884  11.060  0.00  0.00    -0.265 OA
ATOM     17  H           0      56.947  78.481   9.355  0.00  0.00     0.163 HD
BRANCH  15  18
ATOM     18  C           0      58.345  76.565  10.371  0.00  0.00     0.144 A 
ATOM     19  O           0      58.829  75.451   9.762  0.00  0.00    -0.301 OA
ATOM     20  C           0      60.189  75.546   9.788  0.00  0.00     0.119 A 
ATOM     21  C           0      60.577  76.725  10.415  0.00  0.00     0.003 A 
ATOM     22  C           0      61.078  74.608   9.265  0.00  0.00     0.102 A 
ATOM     23  C           0      59.373  77.377  10.789  0.00  0.00     0.057 A 
ATOM     24  C           0      61.951  77.000  10.536  0.00  0.00     0.014 A 
ATOM     25  C           0      62.870  76.076  10.021  0.00  0.00     0.004 A 
ATOM     26  C           0      62.439  74.901   9.397  0.00  0.00     0.040 A 
BRANCH  22  27
ATOM     27  O           0      60.661  73.462   8.656  0.00  0.00    -0.353 OA
ATOM     28  C           0      61.668  72.624   8.094  0.00  0.00     0.210 C 
ENDBRANCH  22  27
ENDBRANCH  15  18
ENDBRANCH  13  14
ENDBRANCH  10  13
ENDBRANCH   1   7
TORSDOF 6
ENDMDL
MODEL 7
REMARK VINA RESULT:      -6.1     33.254     35.215
REMARK  6 active torsions:
REMARK  status: ('A' for Active; 'I' for Inactive)
REMARK    1  A    between atoms: S_1  and  N_8 
REMARK    2  A    between atoms: S_1  and  C_15 
REMARK    3  A    between atoms: O_3  and  C_19 
REMARK    4  A    between atoms: N_7  and  C_11 
REMARK       I    between atoms: N_7  and  C_18 
REMARK    5  A    between atoms: C_10  and  C_11 
REMARK    6  A    between atoms: C_13  and  C_18 
ROOT
ATOM      1  S           0      76.862  85.643 -11.830  0.00  0.00     0.256 S 
ATOM      2  O           0      75.952  86.441 -11.020  0.00  0.00    -0.201 OA
ATOM      3  O           0      78.232  86.090 -12.032  0.00  0.00    -0.201 OA
ENDROOT
BRANCH   1   4
ATOM      4  N           0      76.143  85.369 -13.356  0.00  0.00    -0.324 N 
ATOM      5  H           0      75.301  85.910 -13.590  0.00  0.00     0.169 HD
ATOM      6  H           0      76.132  84.405 -13.712  0.00  0.00     0.169 HD
ENDBRANCH   1   4
BRANCH   1   7
ATOM      7  C           0      76.897  84.022 -11.183  0.00  0.00     0.079 A 
ATOM      8  C           0      76.720  83.812  -9.815  0.00  0.00     0.026 A 
ATOM      9  C           0      76.749  82.517  -9.299  0.00  0.00     0.010 A 
ATOM     10  C           0      76.955  81.430 -10.150  0.00  0.00    -0.040 A 
ATOM     11  C           0      77.132  81.640 -11.518  0.00  0.00     0.010 A 
ATOM     12  C           0      77.103  82.935 -12.034  0.00  0.00     0.026 A 
BRANCH  10  13
ATOM     13  C           0      76.985  80.034  -9.593  0.00  0.00     0.161 C 
BRANCH  13  14
ATOM     14  N           0      76.396  79.958  -8.276  0.00  0.00    -0.351 N 
ATOM     15  C           0      76.520  78.839  -7.421  0.00  0.00     0.275 C 
ATOM     16  O           0      77.183  77.848  -7.824  0.00  0.00    -0.265 OA
ATOM     17  H           0      75.881  80.768  -7.942  0.00  0.00     0.163 HD
BRANCH  15  18
ATOM     18  C           0      75.909  78.922  -6.140  0.00  0.00     0.144 A 
ATOM     19  O           0      75.200  80.042  -5.845  0.00  0.00    -0.301 OA
ATOM     20  C           0      74.719  79.886  -4.579  0.00  0.00     0.119 A 
ATOM     21  C           0      75.121  78.659  -4.061  0.00  0.00     0.003 A 
ATOM     22  C           0      73.935  80.808  -3.889  0.00  0.00     0.102 A 
ATOM     23  C           0      75.893  78.044  -5.081  0.00  0.00     0.057 A 
ATOM     24  C           0      74.719  78.317  -2.758  0.00  0.00     0.014 A 
ATOM     25  C           0      73.931  79.224  -2.037  0.00  0.00     0.004 A 
ATOM     26  C           0      73.547  80.448  -2.595  0.00  0.00     0.040 A 
BRANCH  22  27
ATOM     27  O           0      73.558  82.001  -4.429  0.00  0.00    -0.353 OA
ATOM     28  C           0      73.496  83.121  -3.549  0.00  0.00     0.210 C 
ENDBRANCH  22  27
ENDBRANCH  15  18
ENDBRANCH  13  14
ENDBRANCH  10  13
ENDBRANCH   1   7
TORSDOF 6
ENDMDL
MODEL 8
REMARK VINA RESULT:      -5.9     28.264     30.475
REMARK  6 active torsions:
REMARK  status: ('A' for Active; 'I' for Inactive)
REMARK    1  A    between atoms: S_1  and  N_8 
REMARK    2  A    between atoms: S_1  and  C_15 
REMARK    3  A    between atoms: O_3  and  C_19 
REMARK    4  A    between atoms: N_7  and  C_11 
REMARK       I    between atoms: N_7  and  C_18 
REMARK    5  A    between atoms: C_10  and  C_11 
REMARK    6  A    between atoms: C_13  and  C_18 
ROOT
ATOM      1  S           0      53.535  64.770  17.261  0.00  0.00     0.256 S 
ATOM      2  O           0      52.366  65.618  17.075  0.00  0.00    -0.201 OA
ATOM      3  O           0      54.332  64.894  18.472  0.00  0.00    -0.201 OA
ENDROOT
BRANCH   1   4
ATOM      4  N           0      54.563  64.945  15.907  0.00  0.00    -0.324 N 
ATOM      5  H           0      55.541  64.647  16.010  0.00  0.00     0.169 HD
ATOM      6  H           0      54.441  65.779  15.320  0.00  0.00     0.169 HD
ENDBRANCH   1   4
BRANCH   1   7
ATOM      7  C           0      53.040  63.105  17.090  0.00  0.00     0.079 A 
ATOM      8  C           0      53.968  62.136  16.709  0.00  0.00     0.026 A 
ATOM      9  C           0      53.572  60.806  16.572  0.00  0.00     0.010 A 
ATOM     10  C           0      52.246  60.444  16.815  0.00  0.00    -0.040 A 
ATOM     11  C           0      51.318  61.413  17.196  0.00  0.00     0.010 A 
ATOM     12  C           0      51.714  62.743  17.334  0.00  0.00     0.026 A 
BRANCH  10  13
ATOM     13  C           0      51.820  59.010  16.668  0.00  0.00     0.161 C 
BRANCH  13  14
ATOM     14  N           0      50.944  58.813  15.537  0.00  0.00    -0.351 N 
ATOM     15  C           0      49.541  58.673  15.641  0.00  0.00     0.275 C 
ATOM     16  O           0      49.017  58.723  16.785  0.00  0.00    -0.265 OA
ATOM     17  H           0      51.364  58.796  14.611  0.00  0.00     0.163 HD
BRANCH  15  18
ATOM     18  C           0      48.806  58.515  14.434  0.00  0.00     0.144 A 
ATOM     19  O           0      48.568  59.622  13.684  0.00  0.00    -0.301 OA
ATOM     20  C           0      47.857  59.217  12.594  0.00  0.00     0.119 A 
ATOM     21  C           0      47.639  57.844  12.645  0.00  0.00     0.003 A 
ATOM     22  C           0      47.406  60.044  11.566  0.00  0.00     0.102 A 
ATOM     23  C           0      48.258  57.400  13.843  0.00  0.00     0.057 A 
ATOM     24  C           0      46.919  57.240  11.600  0.00  0.00     0.014 A 
ATOM     25  C           0      46.451  58.045  10.552  0.00  0.00     0.004 A 
ATOM     26  C           0      46.692  59.422  10.537  0.00  0.00     0.040 A 
BRANCH  22  27
ATOM     27  O           0      47.639  61.387  11.549  0.00  0.00    -0.353 OA
ATOM     28  C           0      46.589  62.220  11.065  0.00  0.00     0.210 C 
ENDBRANCH  22  27
ENDBRANCH  15  18
ENDBRANCH  13  14
ENDBRANCH  10  13
ENDBRANCH   1   7
TORSDOF 6
ENDMDL
MODEL 9
REMARK VINA RESULT:      -5.8     27.439     30.276
REMARK  6 active torsions:
REMARK  status: ('A' for Active; 'I' for Inactive)
REMARK    1  A    between atoms: S_1  and  N_8 
REMARK    2  A    between atoms: S_1  and  C_15 
REMARK    3  A    between atoms: O_3  and  C_19 
REMARK    4  A    between atoms: N_7  and  C_11 
REMARK       I    between atoms: N_7  and  C_18 
REMARK    5  A    between atoms: C_10  and  C_11 
REMARK    6  A    between atoms: C_13  and  C_18 
ROOT
ATOM      1  S           0      49.798  58.195  15.241  0.00  0.00     0.256 S 
ATOM      2  O           0      50.226  56.811  15.095  0.00  0.00    -0.201 OA
ATOM      3  O           0      50.791  59.245  15.410  0.00  0.00    -0.201 OA
ENDROOT
BRANCH   1   4
ATOM      4  N           0      48.673  58.291  16.524  0.00  0.00    -0.324 N 
ATOM      5  H           0      48.496  57.437  17.067  0.00  0.00     0.169 HD
ATOM      6  H           0      47.841  58.877  16.385  0.00  0.00     0.169 HD
ENDBRANCH   1   4
BRANCH   1   7
ATOM      7  C           0      48.786  58.604  13.879  0.00  0.00     0.079 A 
ATOM      8  C           0      48.657  59.934  13.479  0.00  0.00     0.026 A 
ATOM      9  C           0      47.847  60.260  12.392  0.00  0.00     0.010 A 
ATOM     10  C           0      47.164  59.256  11.703  0.00  0.00    -0.040 A 
ATOM     11  C           0      47.293  57.925  12.103  0.00  0.00     0.010 A 
ATOM     12  C           0      48.103  57.599  13.190  0.00  0.00     0.026 A 
BRANCH  10  13
ATOM     13  C           0      46.293  59.607  10.530  0.00  0.00     0.161 C 
BRANCH  13  14
ATOM     14  N           0      45.458  60.757  10.795  0.00  0.00    -0.351 N 
ATOM     15  C           0      44.146  60.675  11.315  0.00  0.00     0.275 C 
ATOM     16  O           0      43.671  59.536  11.565  0.00  0.00    -0.265 OA
ATOM     17  H           0      45.850  61.677  10.614  0.00  0.00     0.163 HD
BRANCH  15  18
ATOM     18  C           0      43.456  61.896  11.550  0.00  0.00     0.144 A 
ATOM     19  O           0      44.179  62.960  11.988  0.00  0.00    -0.301 OA
ATOM     20  C           0      43.307  63.997  12.137  0.00  0.00     0.119 A 
ATOM     21  C           0      42.020  63.596  11.793  0.00  0.00     0.003 A 
ATOM     22  C           0      43.637  65.280  12.570  0.00  0.00     0.102 A 
ATOM     23  C           0      42.129  62.232  11.415  0.00  0.00     0.057 A 
ATOM     24  C           0      40.978  64.535  11.884  0.00  0.00     0.014 A 
ATOM     25  C           0      41.278  65.834  12.316  0.00  0.00     0.004 A 
ATOM     26  C           0      42.586  66.198  12.653  0.00  0.00     0.040 A 
BRANCH  22  27
ATOM     27  O           0      44.911  65.638  12.898  0.00  0.00    -0.353 OA
ATOM     28  C           0      45.076  66.857  13.618  0.00  0.00     0.210 C 
ENDBRANCH  22  27
ENDBRANCH  15  18
ENDBRANCH  13  14
ENDBRANCH  10  13
ENDBRANCH   1   7
TORSDOF 6
ENDMDL
