MODEL 1
REMARK VINA RESULT:      -6.4      0.000      0.000
REMARK  6 active torsions:
REMARK  status: ('A' for Active; 'I' for Inactive)
REMARK    1  A    between atoms: S_1  and  N_8 
REMARK    2  A    between atoms: S_1  and  C_15 
REMARK    3  A    between atoms: O_3  and  C_19 
REMARK    4  A    between atoms: N_7  and  C_11 
REMARK       I    between atoms: N_7  and  C_18 
REMARK    5  A    between atoms: C_10  and  C_11 
REMARK    6  A    between atoms: C_13  and  C_18 
ROOT
ATOM      1  S           0      28.492   0.805 -37.972  0.00  0.00     0.256 S 
ATOM      2  O           0      29.054   0.657 -39.307  0.00  0.00    -0.201 OA
ATOM      3  O           0      27.278   1.584 -37.781  0.00  0.00    -0.201 OA
ENDROOT
BRANCH   1   4
ATOM      4  N           0      29.703   1.411 -36.929  0.00  0.00    -0.324 N 
ATOM      5  H           0      30.284   2.185 -37.273  0.00  0.00     0.169 HD
ATOM      6  H           0      30.211   0.736 -36.345  0.00  0.00     0.169 HD
ENDBRANCH   1   4
BRANCH   1   7
ATOM      7  C           0      28.240  -0.787 -37.301  0.00  0.00     0.079 A 
ATOM      8  C           0      27.733  -0.927 -36.009  0.00  0.00     0.026 A 
ATOM      9  C           0      27.533  -2.199 -35.473  0.00  0.00     0.010 A 
ATOM     10  C           0      27.841  -3.332 -36.228  0.00  0.00    -0.040 A 
ATOM     11  C           0      28.349  -3.191 -37.520  0.00  0.00     0.010 A 
ATOM     12  C           0      28.549  -1.919 -38.056  0.00  0.00     0.026 A 
BRANCH  10  13
ATOM     13  C           0      27.625  -4.702 -35.650  0.00  0.00     0.161 C 
BRANCH  13  14
ATOM     14  N           0      27.460  -5.708 -36.674  0.00  0.00    -0.351 N 
ATOM     15  C           0      26.237  -6.365 -36.944  0.00  0.00     0.275 C 
ATOM     16  O           0      25.229  -6.060 -36.255  0.00  0.00    -0.265 OA
ATOM     17  H           0      28.269  -5.937 -37.245  0.00  0.00     0.163 HD
BRANCH  15  18
ATOM     18  C           0      26.222  -7.313 -38.004  0.00  0.00     0.144 A 
ATOM     19  O           0      26.631  -8.579 -37.731  0.00  0.00    -0.301 OA
ATOM     20  C           0      26.527  -9.287 -38.891  0.00  0.00     0.119 A 
ATOM     21  C           0      26.049  -8.472 -39.911  0.00  0.00     0.003 A 
ATOM     22  C           0      26.847 -10.635 -39.051  0.00  0.00     0.102 A 
ATOM     23  C           0      25.855  -7.194 -39.325  0.00  0.00     0.057 A 
ATOM     24  C           0      25.873  -9.030 -41.190  0.00  0.00     0.014 A 
ATOM     25  C           0      26.187 -10.382 -41.383  0.00  0.00     0.004 A 
ATOM     26  C           0      26.665 -11.169 -40.330  0.00  0.00     0.040 A 
BRANCH  22  27
ATOM     27  O           0      27.313 -11.405 -38.027  0.00  0.00    -0.353 OA
ATOM     28  C           0      26.342 -12.080 -37.231  0.00  0.00     0.210 C 
ENDBRANCH  22  27
ENDBRANCH  15  18
ENDBRANCH  13  14
ENDBRANCH  10  13
ENDBRANCH   1   7
TORSDOF 6
ENDMDL
MODEL 2
REMARK VINA RESULT:      -6.2     37.370     39.246
REMARK  6 active torsions:
REMARK  status: ('A' for Active; 'I' for Inactive)
REMARK    1  A    between atoms: S_1  and  N_8 
REMARK    2  A    between atoms: S_1  and  C_15 
REMARK    3  A    between atoms: O_3  and  C_19 
REMARK    4  A    between atoms: N_7  and  C_11 
REMARK       I    between atoms: N_7  and  C_18 
REMARK    5  A    between atoms: C_10  and  C_11 
REMARK    6  A    between atoms: C_13  and  C_18 
ROOT
ATOM      1  S           0      55.916 -21.097 -22.022  0.00  0.00     0.256 S 
ATOM      2  O           0      54.907 -20.285 -21.358  0.00  0.00    -0.201 OA
ATOM      3  O           0      55.539 -21.946 -23.142  0.00  0.00    -0.201 OA
ENDROOT
BRANCH   1   4
ATOM      4  N           0      56.709 -22.056 -20.851  0.00  0.00    -0.324 N 
ATOM      5  H           0      57.139 -22.935 -21.165  0.00  0.00     0.169 HD
ATOM      6  H           0      56.291 -22.108 -19.914  0.00  0.00     0.169 HD
ENDBRANCH   1   4
BRANCH   1   7
ATOM      7  C           0      57.217 -20.051 -22.533  0.00  0.00     0.079 A 
ATOM      8  C           0      57.465 -18.862 -21.848  0.00  0.00     0.026 A 
ATOM      9  C           0      58.504 -18.026 -22.257  0.00  0.00     0.010 A 
ATOM     10  C           0      59.295 -18.379 -23.351  0.00  0.00    -0.040 A 
ATOM     11  C           0      59.047 -19.569 -24.036  0.00  0.00     0.010 A 
ATOM     12  C           0      58.008 -20.405 -23.627  0.00  0.00     0.026 A 
BRANCH  10  13
ATOM     13  C           0      60.415 -17.478 -23.791  0.00  0.00     0.161 C 
BRANCH  13  14
ATOM     14  N           0      60.884 -16.627 -22.722  0.00  0.00    -0.351 N 
ATOM     15  C           0      61.130 -15.243 -22.867  0.00  0.00     0.275 C 
ATOM     16  O           0      60.929 -14.713 -23.991  0.00  0.00    -0.265 OA
ATOM     17  H           0      61.024 -17.050 -21.808  0.00  0.00     0.163 HD
BRANCH  15  18
ATOM     18  C           0      61.562 -14.529 -21.715  0.00  0.00     0.144 A 
ATOM     19  O           0      60.772 -14.567 -20.611  0.00  0.00    -0.301 OA
ATOM     20  C           0      61.391 -13.818 -19.655  0.00  0.00     0.119 A 
ATOM     21  C           0      62.583 -13.298 -20.149  0.00  0.00     0.003 A 
ATOM     22  C           0      60.916 -13.595 -18.364  0.00  0.00     0.102 A 
ATOM     23  C           0      62.683 -13.765 -21.486  0.00  0.00     0.057 A 
ATOM     24  C           0      63.366 -12.494 -19.302  0.00  0.00     0.014 A 
ATOM     25  C           0      62.915 -12.251 -17.998  0.00  0.00     0.004 A 
ATOM     26  C           0      61.710 -12.793 -17.539  0.00  0.00     0.040 A 
BRANCH  22  27
ATOM     27  O           0      59.743 -14.122 -17.912  0.00  0.00    -0.353 OA
ATOM     28  C           0      59.811 -15.382 -17.249  0.00  0.00     0.210 C 
ENDBRANCH  22  27
ENDBRANCH  15  18
ENDBRANCH  13  14
ENDBRANCH  10  13
ENDBRANCH   1   7
TORSDOF 6
ENDMDL
MODEL 3
REMARK VINA RESULT:      -6.1     36.612     38.772
REMARK  6 active torsions:
REMARK  status: ('A' for Active; 'I' for Inactive)
REMARK    1  A    between atoms: S_1  and  N_8 
REMARK    2  A    between atoms: S_1  and  C_15 
REMARK    3  A    between atoms: O_3  and  C_19 
REMARK    4  A    between atoms: N_7  and  C_11 
REMARK       I    between atoms: N_7  and  C_18 
REMARK    5  A    between atoms: C_10  and  C_11 
REMARK    6  A    between atoms: C_13  and  C_18 
ROOT
ATOM      1  S           0      66.762  -8.633 -40.383  0.00  0.00     0.256 S 
ATOM      2  O           0      67.405  -9.634 -39.545  0.00  0.00    -0.201 OA
ATOM      3  O           0      65.562  -8.978 -41.131  0.00  0.00    -0.201 OA
ENDROOT
BRANCH   1   4
ATOM      4  N           0      67.920  -7.997 -41.468  0.00  0.00    -0.324 N 
ATOM      5  H           0      67.865  -8.292 -42.451  0.00  0.00     0.169 HD
ATOM      6  H           0      68.879  -7.874 -41.123  0.00  0.00     0.169 HD
ENDBRANCH   1   4
BRANCH   1   7
ATOM      7  C           0      66.419  -7.230 -39.402  0.00  0.00     0.079 A 
ATOM      8  C           0      65.703  -6.161 -39.940  0.00  0.00     0.026 A 
ATOM      9  C           0      65.431  -5.040 -39.156  0.00  0.00     0.010 A 
ATOM     10  C           0      65.875  -4.987 -37.834  0.00  0.00    -0.040 A 
ATOM     11  C           0      66.591  -6.057 -37.296  0.00  0.00     0.010 A 
ATOM     12  C           0      66.864  -7.178 -38.080  0.00  0.00     0.026 A 
BRANCH  10  13
ATOM     13  C           0      65.580  -3.780 -36.989  0.00  0.00     0.161 C 
BRANCH  13  14
ATOM     14  N           0      64.924  -2.734 -37.740  0.00  0.00    -0.351 N 
ATOM     15  C           0      64.460  -1.527 -37.169  0.00  0.00     0.275 C 
ATOM     16  O           0      64.625  -1.346 -35.934  0.00  0.00    -0.265 OA
ATOM     17  H           0      64.812  -2.871 -38.740  0.00  0.00     0.163 HD
BRANCH  15  18
ATOM     18  C           0      63.860  -0.577 -38.041  0.00  0.00     0.144 A 
ATOM     19  O           0      64.412  -0.405 -39.269  0.00  0.00    -0.301 OA
ATOM     20  C           0      63.669   0.543 -39.908  0.00  0.00     0.119 A 
ATOM     21  C           0      62.636   0.979 -39.085  0.00  0.00     0.003 A 
ATOM     22  C           0      63.896   1.019 -41.199  0.00  0.00     0.102 A 
ATOM     23  C           0      62.770   0.246 -37.877  0.00  0.00     0.057 A 
ATOM     24  C           0      61.758   1.962 -39.574  0.00  0.00     0.014 A 
ATOM     25  C           0      61.959   2.461 -40.869  0.00  0.00     0.004 A 
ATOM     26  C           0      63.011   1.996 -41.665  0.00  0.00     0.040 A 
BRANCH  22  27
ATOM     27  O           0      64.919   0.568 -41.978  0.00  0.00    -0.353 OA
ATOM     28  C           0      66.144   1.295 -41.924  0.00  0.00     0.210 C 
ENDBRANCH  22  27
ENDBRANCH  15  18
ENDBRANCH  13  14
ENDBRANCH  10  13
ENDBRANCH   1   7
TORSDOF 6
ENDMDL
MODEL 4
REMARK VINA RESULT:      -6.1     26.707     28.443
REMARK  6 active torsions:
REMARK  status: ('A' for Active; 'I' for Inactive)
REMARK    1  A    between atoms: S_1  and  N_8 
REMARK    2  A    between atoms: S_1  and  C_15 
REMARK    3  A    between atoms: O_3  and  C_19 
REMARK    4  A    between atoms: N_7  and  C_11 
REMARK       I    between atoms: N_7  and  C_18 
REMARK    5  A    between atoms: C_10  and  C_11 
REMARK    6  A    between atoms: C_13  and  C_18 
ROOT
ATOM      1  S           0      45.931   1.292 -55.396  0.00  0.00     0.256 S 
ATOM      2  O           0      44.666   0.928 -54.774  0.00  0.00    -0.201 OA
ATOM      3  O           0      47.183   0.847 -54.803  0.00  0.00    -0.201 OA
ENDROOT
BRANCH   1   4
ATOM      4  N           0      45.985   2.990 -55.582  0.00  0.00    -0.324 N 
ATOM      5  H           0      45.854   3.566 -54.741  0.00  0.00     0.169 HD
ATOM      6  H           0      45.566   3.390 -56.431  0.00  0.00     0.169 HD
ENDBRANCH   1   4
BRANCH   1   7
ATOM      7  C           0      45.893   0.776 -57.063  0.00  0.00     0.079 A 
ATOM      8  C           0      47.032   0.900 -57.859  0.00  0.00     0.026 A 
ATOM      9  C           0      47.000   0.489 -59.191  0.00  0.00     0.010 A 
ATOM     10  C           0      45.829  -0.047 -59.729  0.00  0.00    -0.040 A 
ATOM     11  C           0      44.690  -0.172 -58.934  0.00  0.00     0.010 A 
ATOM     12  C           0      44.722   0.240 -57.601  0.00  0.00     0.026 A 
BRANCH  10  13
ATOM     13  C           0      45.796  -0.492 -61.164  0.00  0.00     0.161 C 
BRANCH  13  14
ATOM     14  N           0      44.505  -1.017 -61.545  0.00  0.00    -0.351 N 
ATOM     15  C           0      44.171  -1.408 -62.862  0.00  0.00     0.275 C 
ATOM     16  O           0      45.045  -1.295 -63.761  0.00  0.00    -0.265 OA
ATOM     17  H           0      43.807  -1.130 -60.815  0.00  0.00     0.163 HD
BRANCH  15  18
ATOM     18  C           0      42.868  -1.935 -63.078  0.00  0.00     0.144 A 
ATOM     19  O           0      41.856  -1.469 -62.301  0.00  0.00    -0.301 OA
ATOM     20  C           0      40.723  -2.117 -62.694  0.00  0.00     0.119 A 
ATOM     21  C           0      41.011  -3.003 -63.728  0.00  0.00     0.003 A 
ATOM     22  C           0      39.453  -1.933 -62.152  0.00  0.00     0.102 A 
ATOM     23  C           0      42.404  -2.876 -63.968  0.00  0.00     0.057 A 
ATOM     24  C           0      39.961  -3.766 -64.269  0.00  0.00     0.014 A 
ATOM     25  C           0      38.671  -3.604 -63.744  0.00  0.00     0.004 A 
ATOM     26  C           0      38.424  -2.703 -62.704  0.00  0.00     0.040 A 
BRANCH  22  27
ATOM     27  O           0      39.208  -1.055 -61.138  0.00  0.00    -0.353 OA
ATOM     28  C           0      38.026  -0.264 -61.238  0.00  0.00     0.210 C 
ENDBRANCH  22  27
ENDBRANCH  15  18
ENDBRANCH  13  14
ENDBRANCH  10  13
ENDBRANCH   1   7
TORSDOF 6
ENDMDL
MODEL 5
REMARK VINA RESULT:      -5.9      9.373     13.398
REMARK  6 active torsions:
REMARK  status: ('A' for Active; 'I' for Inactive)
REMARK    1  A    between atoms: S_1  and  N_8 
REMARK    2  A    between atoms: S_1  and  C_15 
REMARK    3  A    between atoms: O_3  and  C_19 
REMARK    4  A    between atoms: N_7  and  C_11 
REMARK       I    between atoms: N_7  and  C_18 
REMARK    5  A    between atoms: C_10  and  C_11 
REMARK    6  A    between atoms: C_13  and  C_18 
ROOT
ATOM      1  S           0      25.270 -12.554 -36.548  0.00  0.00     0.256 S 
ATOM      2  O           0      24.742 -11.206 -36.702  0.00  0.00    -0.201 OA
ATOM      3  O           0      25.235 -13.200 -35.244  0.00  0.00    -0.201 OA
ENDROOT
BRANCH   1   4
ATOM      4  N           0      26.876 -12.587 -37.133  0.00  0.00    -0.324 N 
ATOM      5  H           0      27.226 -11.747 -37.610  0.00  0.00     0.169 HD
ATOM      6  H           0      27.219 -13.468 -37.533  0.00  0.00     0.169 HD
ENDBRANCH   1   4
BRANCH   1   7
ATOM      7  C           0      24.474 -13.593 -37.703  0.00  0.00     0.079 A 
ATOM      8  C           0      25.210 -14.542 -38.412  0.00  0.00     0.026 A 
ATOM      9  C           0      24.574 -15.371 -39.335  0.00  0.00     0.010 A 
ATOM     10  C           0      23.200 -15.251 -39.551  0.00  0.00    -0.040 A 
ATOM     11  C           0      22.464 -14.301 -38.843  0.00  0.00     0.010 A 
ATOM     12  C           0      23.100 -13.472 -37.919  0.00  0.00     0.026 A 
BRANCH  10  13
ATOM     13  C           0      22.515 -16.145 -40.546  0.00  0.00     0.161 C 
BRANCH  13  14
ATOM     14  N           0      23.273 -17.344 -40.817  0.00  0.00    -0.351 N 
ATOM     15  C           0      22.708 -18.639 -40.869  0.00  0.00     0.275 C 
ATOM     16  O           0      21.471 -18.761 -40.670  0.00  0.00    -0.265 OA
ATOM     17  H           0      24.268 -17.243 -41.000  0.00  0.00     0.163 HD
BRANCH  15  18
ATOM     18  C           0      23.577 -19.722 -41.177  0.00  0.00     0.144 A 
ATOM     19  O           0      23.018 -20.935 -41.423  0.00  0.00    -0.301 OA
ATOM     20  C           0      24.042 -21.796 -41.689  0.00  0.00     0.119 A 
ATOM     21  C           0      25.261 -21.131 -41.612  0.00  0.00     0.003 A 
ATOM     22  C           0      23.905 -23.149 -41.995  0.00  0.00     0.102 A 
ATOM     23  C           0      24.947 -19.787 -41.279  0.00  0.00     0.057 A 
ATOM     24  C           0      26.439 -21.859 -41.857  0.00  0.00     0.014 A 
ATOM     25  C           0      26.335 -23.222 -42.167  0.00  0.00     0.004 A 
ATOM     26  C           0      25.089 -23.853 -42.235  0.00  0.00     0.040 A 
BRANCH  22  27
ATOM     27  O           0      22.693 -23.768 -42.062  0.00  0.00    -0.353 OA
ATOM     28  C           0      22.034 -23.766 -43.326  0.00  0.00     0.210 C 
ENDBRANCH  22  27
ENDBRANCH  15  18
ENDBRANCH  13  14
ENDBRANCH  10  13
ENDBRANCH   1   7
TORSDOF 6
ENDMDL
MODEL 6
REMARK VINA RESULT:      -5.9     11.306     15.003
REMARK  6 active torsions:
REMARK  status: ('A' for Active; 'I' for Inactive)
REMARK    1  A    between atoms: S_1  and  N_8 
REMARK    2  A    between atoms: S_1  and  C_15 
REMARK    3  A    between atoms: O_3  and  C_19 
REMARK    4  A    between atoms: N_7  and  C_11 
REMARK       I    between atoms: N_7  and  C_18 
REMARK    5  A    between atoms: C_10  and  C_11 
REMARK    6  A    between atoms: C_13  and  C_18 
ROOT
ATOM      1  S           0      30.707   4.886 -34.704  0.00  0.00     0.256 S 
ATOM      2  O           0      30.567   6.334 -34.657  0.00  0.00    -0.201 OA
ATOM      3  O           0      29.539   4.054 -34.959  0.00  0.00    -0.201 OA
ENDROOT
BRANCH   1   4
ATOM      4  N           0      31.452   4.358 -33.260  0.00  0.00    -0.324 N 
ATOM      5  H           0      31.063   3.525 -32.799  0.00  0.00     0.169 HD
ATOM      6  H           0      31.789   5.075 -32.607  0.00  0.00     0.169 HD
ENDBRANCH   1   4
BRANCH   1   7
ATOM      7  C           0      31.937   4.489 -35.878  0.00  0.00     0.079 A 
ATOM      8  C           0      31.625   3.678 -36.969  0.00  0.00     0.026 A 
ATOM      9  C           0      32.608   3.360 -37.905  0.00  0.00     0.010 A 
ATOM     10  C           0      33.905   3.853 -37.751  0.00  0.00    -0.040 A 
ATOM     11  C           0      34.217   4.664 -36.659  0.00  0.00     0.010 A 
ATOM     12  C           0      33.233   4.982 -35.723  0.00  0.00     0.026 A 
BRANCH  10  13
ATOM     13  C           0      34.964   3.512 -38.761  0.00  0.00     0.161 C 
BRANCH  13  14
ATOM     14  N           0      36.256   3.301 -38.149  0.00  0.00    -0.351 N 
ATOM     15  C           0      37.422   2.955 -38.870  0.00  0.00     0.275 C 
ATOM     16  O           0      37.337   2.823 -40.119  0.00  0.00    -0.265 OA
ATOM     17  H           0      36.329   3.430 -37.144  0.00  0.00     0.163 HD
BRANCH  15  18
ATOM     18  C           0      38.629   2.809 -38.133  0.00  0.00     0.144 A 
ATOM     19  O           0      39.139   3.910 -37.523  0.00  0.00    -0.301 OA
ATOM     20  C           0      40.281   3.520 -36.890  0.00  0.00     0.119 A 
ATOM     21  C           0      40.504   2.162 -37.095  0.00  0.00     0.003 A 
ATOM     22  C           0      41.117   4.346 -36.141  0.00  0.00     0.102 A 
ATOM     23  C           0      39.427   1.712 -37.903  0.00  0.00     0.057 A 
ATOM     24  C           0      41.642   1.574 -36.516  0.00  0.00     0.014 A 
ATOM     25  C           0      42.503   2.379 -35.756  0.00  0.00     0.004 A 
ATOM     26  C           0      42.243   3.740 -35.574  0.00  0.00     0.040 A 
BRANCH  22  27
ATOM     27  O           0      40.867   5.673 -35.960  0.00  0.00    -0.353 OA
ATOM     28  C           0      41.319   6.563 -36.978  0.00  0.00     0.210 C 
ENDBRANCH  22  27
ENDBRANCH  15  18
ENDBRANCH  13  14
ENDBRANCH  10  13
ENDBRANCH   1   7
TORSDOF 6
ENDMDL
MODEL 7
REMARK VINA RESULT:      -5.9     36.611     38.747
REMARK  6 active torsions:
REMARK  status: ('A' for Active; 'I' for Inactive)
REMARK    1  A    between atoms: S_1  and  N_8 
REMARK    2  A    between atoms: S_1  and  C_15 
REMARK    3  A    between atoms: O_3  and  C_19 
REMARK    4  A    between atoms: N_7  and  C_11 
REMARK       I    between atoms: N_7  and  C_18 
REMARK    5  A    between atoms: C_10  and  C_11 
REMARK    6  A    between atoms: C_13  and  C_18 
ROOT
ATOM      1  S           0      67.854  -8.819 -40.084  0.00  0.00     0.256 S 
ATOM      2  O           0      69.113  -9.182 -39.449  0.00  0.00    -0.201 OA
ATOM      3  O           0      66.854  -9.844 -40.345  0.00  0.00    -0.201 OA
ENDROOT
BRANCH   1   4
ATOM      4  N           0      68.192  -7.997 -41.544  0.00  0.00    -0.324 N 
ATOM      5  H           0      68.101  -6.974 -41.547  0.00  0.00     0.169 HD
ATOM      6  H           0      67.899  -8.444 -42.422  0.00  0.00     0.169 HD
ENDBRANCH   1   4
BRANCH   1   7
ATOM      7  C           0      67.113  -7.545 -39.149  0.00  0.00     0.079 A 
ATOM      8  C           0      67.585  -7.254 -37.869  0.00  0.00     0.026 A 
ATOM      9  C           0      66.991  -6.237 -37.122  0.00  0.00     0.010 A 
ATOM     10  C           0      65.925  -5.511 -37.654  0.00  0.00    -0.040 A 
ATOM     11  C           0      65.453  -5.802 -38.934  0.00  0.00     0.010 A 
ATOM     12  C           0      66.047  -6.819 -39.681  0.00  0.00     0.026 A 
BRANCH  10  13
ATOM     13  C           0      65.287  -4.414 -36.849  0.00  0.00     0.161 C 
BRANCH  13  14
ATOM     14  N           0      64.827  -3.324 -37.678  0.00  0.00    -0.351 N 
ATOM     15  C           0      64.672  -1.995 -37.219  0.00  0.00     0.275 C 
ATOM     16  O           0      64.951  -1.740 -36.018  0.00  0.00    -0.265 OA
ATOM     17  H           0      64.623  -3.525 -38.653  0.00  0.00     0.163 HD
BRANCH  15  18
ATOM     18  C           0      64.237  -1.022 -38.160  0.00  0.00     0.144 A 
ATOM     19  O           0      63.124  -0.303 -37.863  0.00  0.00    -0.301 OA
ATOM     20  C           0      62.914   0.551 -38.905  0.00  0.00     0.119 A 
ATOM     21  C           0      63.898   0.378 -39.874  0.00  0.00     0.003 A 
ATOM     22  C           0      61.872   1.471 -39.004  0.00  0.00     0.102 A 
ATOM     23  C           0      64.750  -0.645 -39.380  0.00  0.00     0.057 A 
ATOM     24  C           0      63.849   1.176 -41.030  0.00  0.00     0.014 A 
ATOM     25  C           0      62.812   2.111 -41.159  0.00  0.00     0.004 A 
ATOM     26  C           0      61.842   2.254 -40.162  0.00  0.00     0.040 A 
BRANCH  22  27
ATOM     27  O           0      60.925   1.613 -38.034  0.00  0.00    -0.353 OA
ATOM     28  C           0      61.083   2.704 -37.129  0.00  0.00     0.210 C 
ENDBRANCH  22  27
ENDBRANCH  15  18
ENDBRANCH  13  14
ENDBRANCH  10  13
ENDBRANCH   1   7
TORSDOF 6
ENDMDL
MODEL 8
REMARK VINA RESULT:      -5.8     16.002     16.889
REMARK  6 active torsions:
REMARK  status: ('A' for Active; 'I' for Inactive)
REMARK    1  A    between atoms: S_1  and  N_8 
REMARK    2  A    between atoms: S_1  and  C_15 
REMARK    3  A    between atoms: O_3  and  C_19 
REMARK    4  A    between atoms: N_7  and  C_11 
REMARK       I    between atoms: N_7  and  C_18 
REMARK    5  A    between atoms: C_10  and  C_11 
REMARK    6  A    between atoms: C_13  and  C_18 
ROOT
ATOM      1  S           0      29.008 -18.269 -49.030  0.00  0.00     0.256 S 
ATOM      2  O           0      29.331 -19.413 -49.871  0.00  0.00    -0.201 OA
ATOM      3  O           0      27.810 -17.488 -49.300  0.00  0.00    -0.201 OA
ENDROOT
BRANCH   1   4
ATOM      4  N           0      30.354 -17.215 -48.994  0.00  0.00    -0.324 N 
ATOM      5  H           0      30.175 -16.210 -49.113  0.00  0.00     0.169 HD
ATOM      6  H           0      31.224 -17.539 -49.433  0.00  0.00     0.169 HD
ENDBRANCH   1   4
BRANCH   1   7
ATOM      7  C           0      28.960 -18.803 -47.368  0.00  0.00     0.079 A 
ATOM      8  C           0      30.081 -19.402 -46.795  0.00  0.00     0.026 A 
ATOM      9  C           0      30.041 -19.830 -45.468  0.00  0.00     0.010 A 
ATOM     10  C           0      28.880 -19.658 -44.714  0.00  0.00    -0.040 A 
ATOM     11  C           0      27.759 -19.058 -45.287  0.00  0.00     0.010 A 
ATOM     12  C           0      27.798 -18.631 -46.614  0.00  0.00     0.026 A 
BRANCH  10  13
ATOM     13  C           0      28.838 -20.117 -43.283  0.00  0.00     0.161 C 
BRANCH  13  14
ATOM     14  N           0      27.509 -20.041 -42.723  0.00  0.00    -0.351 N 
ATOM     15  C           0      26.768 -21.167 -42.295  0.00  0.00     0.275 C 
ATOM     16  O           0      27.293 -22.306 -42.405  0.00  0.00    -0.265 OA
ATOM     17  H           0      27.095 -19.119 -42.613  0.00  0.00     0.163 HD
BRANCH  15  18
ATOM     18  C           0      25.482 -20.932 -41.736  0.00  0.00     0.144 A 
ATOM     19  O           0      24.910 -21.930 -41.014  0.00  0.00    -0.301 OA
ATOM     20  C           0      23.699 -21.470 -40.590  0.00  0.00     0.119 A 
ATOM     21  C           0      23.494 -20.170 -41.042  0.00  0.00     0.003 A 
ATOM     22  C           0      22.786 -22.182 -39.816  0.00  0.00     0.102 A 
ATOM     23  C           0      24.656 -19.832 -41.784  0.00  0.00     0.057 A 
ATOM     24  C           0      22.293 -19.523 -40.703  0.00  0.00     0.014 A 
ATOM     25  C           0      21.353 -20.214 -39.925  0.00  0.00     0.004 A 
ATOM     26  C           0      21.598 -21.520 -39.490  0.00  0.00     0.040 A 
BRANCH  22  27
ATOM     27  O           0      23.020 -23.455 -39.389  0.00  0.00    -0.353 OA
ATOM     28  C           0      22.561 -24.514 -40.226  0.00  0.00     0.210 C 
ENDBRANCH  22  27
ENDBRANCH  15  18
ENDBRANCH  13  14
ENDBRANCH  10  13
ENDBRANCH   1   7
TORSDOF 6
ENDMDL
MODEL 9
REMARK VINA RESULT:      -5.6     29.649     32.361
REMARK  6 active torsions:
REMARK  status: ('A' for Active; 'I' for Inactive)
REMARK    1  A    between atoms: S_1  and  N_8 
REMARK    2  A    between atoms: S_1  and  C_15 
REMARK    3  A    between atoms: O_3  and  C_19 
REMARK    4  A    between atoms: N_7  and  C_11 
REMARK       I    between atoms: N_7  and  C_18 
REMARK    5  A    between atoms: C_10  and  C_11 
REMARK    6  A    between atoms: C_13  and  C_18 
ROOT
ATOM      1  S           0      46.800 -15.451 -63.573  0.00  0.00     0.256 S 
ATOM      2  O           0      46.870 -14.168 -62.889  0.00  0.00    -0.201 OA
ATOM      3  O           0      47.452 -15.619 -64.863  0.00  0.00    -0.201 OA
ENDROOT
BRANCH   1   4
ATOM      4  N           0      45.159 -15.905 -63.724  0.00  0.00    -0.324 N 
ATOM      5  H           0      44.815 -16.141 -64.663  0.00  0.00     0.169 HD
ATOM      6  H           0      44.472 -15.412 -63.141  0.00  0.00     0.169 HD
ENDBRANCH   1   4
BRANCH   1   7
ATOM      7  C           0      47.388 -16.686 -62.489  0.00  0.00     0.079 A 
ATOM      8  C           0      46.622 -17.071 -61.388  0.00  0.00     0.026 A 
ATOM      9  C           0      47.093 -18.057 -60.522  0.00  0.00     0.010 A 
ATOM     10  C           0      48.330 -18.659 -60.755  0.00  0.00    -0.040 A 
ATOM     11  C           0      49.096 -18.275 -61.856  0.00  0.00     0.010 A 
ATOM     12  C           0      48.625 -17.288 -62.722  0.00  0.00     0.026 A 
BRANCH  10  13
ATOM     13  C           0      48.837 -19.723 -59.822  0.00  0.00     0.161 C 
BRANCH  13  14
ATOM     14  N           0      47.773 -20.564 -59.323  0.00  0.00    -0.351 N 
ATOM     15  C           0      47.792 -21.189 -58.055  0.00  0.00     0.275 C 
ATOM     16  O           0      48.790 -21.005 -57.311  0.00  0.00    -0.265 OA
ATOM     17  H           0      46.957 -20.694 -59.915  0.00  0.00     0.163 HD
BRANCH  15  18
ATOM     18  C           0      46.657 -21.966 -57.690  0.00  0.00     0.144 A 
ATOM     19  O           0      45.553 -21.309 -57.249  0.00  0.00    -0.301 OA
ATOM     20  C           0      44.616 -22.257 -56.965  0.00  0.00     0.119 A 
ATOM     21  C           0      45.121 -23.527 -57.227  0.00  0.00     0.003 A 
ATOM     22  C           0      43.331 -22.010 -56.484  0.00  0.00     0.102 A 
ATOM     23  C           0      46.446 -23.325 -57.696  0.00  0.00     0.057 A 
ATOM     24  C           0      44.294 -24.639 -56.995  0.00  0.00     0.014 A 
ATOM     25  C           0      42.997 -24.424 -56.510  0.00  0.00     0.004 A 
ATOM     26  C           0      42.526 -23.131 -56.260  0.00  0.00     0.040 A 
BRANCH  22  27
ATOM     27  O           0      42.869 -20.752 -56.239  0.00  0.00    -0.353 OA
ATOM     28  C           0      41.733 -20.634 -55.386  0.00  0.00     0.210 C 
ENDBRANCH  22  27
ENDBRANCH  15  18
ENDBRANCH  13  14
ENDBRANCH  10  13
ENDBRANCH   1   7
TORSDOF 6
ENDMDL
