untitled
  ChemPy            3D                             0

 28 30  0  0  1  0  0  0  0  0999 V2000
   26.0490   -8.4720  -39.9110 C   0  0  0  0  0  0  0  0  0  0  0  0
   26.1870  -10.3820  -41.3830 C   0  0  0  0  0  0  0  0  0  0  0  0
   27.5330   -2.1990  -35.4730 C   0  0  0  0  0  0  0  0  0  0  0  0
   28.3490   -3.1910  -37.5200 C   0  0  0  0  0  0  0  0  0  0  0  0
   25.8730   -9.0300  -41.1900 C   0  0  0  0  0  0  0  0  0  0  0  0
   27.7330   -0.9270  -36.0090 C   0  0  0  0  0  0  0  0  0  0  0  0
   28.5490   -1.9190  -38.0560 C   0  0  0  0  0  0  0  0  0  0  0  0
   27.8410   -3.3320  -36.2280 C   0  0  0  0  0  0  0  0  0  0  0  0
   26.6650  -11.1690  -40.3300 C   0  0  0  0  0  0  0  0  0  0  0  0
   25.8550   -7.1940  -39.3250 C   0  0  0  0  0  0  0  0  0  0  0  0
   28.2400   -0.7870  -37.3010 C   0  0  0  0  0  0  0  0  0  0  0  0
   26.8470  -10.6350  -39.0510 C   0  0  0  0  0  0  0  0  0  0  0  0
   26.5270   -9.2870  -38.8910 C   0  0  0  0  0  0  0  0  0  0  0  0
   26.2220   -7.3130  -38.0040 C   0  0  0  0  0  0  0  0  0  0  0  0
   27.6250   -4.7020  -35.6500 C   0  0  0  0  0  0  0  0  0  0  0  0
   28.2690   -5.9370  -37.2450 H   0  0  0  0  0  0  0  0  0  0  0  0
   30.2840    2.1850  -37.2730 H   0  0  0  0  0  0  0  0  0  0  0  0
   30.2110    0.7360  -36.3450 H   0  0  0  0  0  0  0  0  0  0  0  0
   29.0540    0.6570  -39.3070 O   0  0  0  0  0  0  0  0  0  0  0  0
   27.2780    1.5840  -37.7810 O   0  0  0  0  0  0  0  0  0  0  0  0
   26.3420  -12.0800  -37.2310 C   0  0  0  0  0  0  0  0  0  0  0  0
   28.4920    0.8050  -37.9720 S   0  0  0  0  0  0  0  0  0  0  0  0
   25.2290   -6.0600  -36.2550 O   0  0  0  0  0  0  0  0  0  0  0  0
   26.2370   -6.3650  -36.9440 C   0  0  0  0  0  0  0  0  0  0  0  0
   26.6310   -8.5790  -37.7310 O   0  0  0  0  0  0  0  0  0  0  0  0
   29.7030    1.4110  -36.9290 N   0  0  0  0  0  0  0  0  0  0  0  0
   27.4600   -5.7080  -36.6740 N   0  0  0  0  0  0  0  0  0  0  0  0
   27.3130  -11.4050  -38.0270 O   0  0  0  0  0  0  0  0  0  0  0  0
  1  5  1  0  0  0  0
  1 10  1  0  0  0  0
  2  9  1  0  0  0  0
  3  8  1  0  0  0  0
  4  7  1  0  0  0  0
  5  2  1  0  0  0  0
  6  3  1  0  0  0  0
  8  4  1  0  0  0  0
  8 15  1  0  0  0  0
 11  6  1  0  0  0  0
 11  7  1  0  0  0  0
 12  9  1  0  0  0  0
 12 28  1  0  0  0  0
 13  1  1  0  0  0  0
 13 12  1  0  0  0  0
 14 10  1  0  0  0  0
 14 25  1  0  0  0  0
 15 27  1  0  0  0  0
 22 11  1  0  0  0  0
 22 19  1  0  0  0  0
 22 20  1  0  0  0  0
 22 26  1  0  0  0  0
 24 14  1  0  0  0  0
 24 23  1  0  0  0  0
 25 13  1  0  0  0  0
 26 17  1  0  0  0  0
 26 18  1  0  0  0  0
 27 16  1  0  0  0  0
 27 24  1  0  0  0  0
 28 21  1  0  0  0  0
M  END
