@<TRIPOS>MOLECULE
/Users/evelyn/Desktop/new_docking/c8_charged_docking_4lxz.pdbqt
 28 30 0 0 0
SMALL
GASTEIGER

@<TRIPOS>ATOM
      1  C         40.6160    3.4570  -37.0710 C.ar    0  UNK0        0.0270
      2  C         42.5060    3.5790  -35.5720 C.ar    0  UNK0        0.0020
      3  C         41.5380    4.2330  -36.3470 C.ar    0  UNK0        0.0020
      4  C         42.5610    2.1830  -35.5150 C.ar    0  UNK0        0.0260
      5  C         39.5240    3.7230  -37.9390 C.ar    0  UNK0        0.0320
      6  C         41.6550    1.3920  -36.2270 C.ar    0  UNK0        0.1170
      7  C         40.7040    2.0720  -36.9870 C.ar    0  UNK0        0.1220
      8  C         39.0270    2.4990  -38.3230 C.ar    0  UNK0        0.1550
      9  O         39.7360    1.4910  -37.7510 O.2     0  UNK0       -0.3000
     10  C         37.9450    2.1500  -39.1780 C.2     0  UNK0        0.2770
     11  O         37.9470    1.1550  -39.9490 O.2     0  UNK0       -0.2650
     12  N         36.8140    2.9980  -39.1780 N.am    0  UNK0       -0.3360
     13  H         36.8220    3.8150  -38.5720 H       0  UNK0        0.1640
     14  C         35.6520    2.7920  -40.0110 C.3     0  UNK0        0.1270
     15  C         35.7490    3.5320  -41.3160 C.ar    0  UNK0       -0.0000
     16  C         36.7100    4.5300  -41.4820 C.ar    0  UNK0       -0.0020
     17  C         36.7990    5.2180  -42.6920 C.ar    0  UNK0        0.0130
     18  C         35.9280    4.9090  -43.7360 C.ar    0  UNK0        0.1030
     19  C         34.9670    3.9110  -43.5700 C.ar    0  UNK0        0.0130
     20  C         34.8780    3.2230  -42.3600 C.ar    0  UNK0       -0.0020
     21  S         36.0400    5.7690  -45.2510 S.O2    0  UNK0        0.2580
     22  O         36.6310    4.8800  -46.2410 O.2     0  UNK0       -0.2010
     23  O         34.7570    6.4010  -45.5200 O.2     0  UNK0       -0.2010
     24  N         37.1760    6.9830  -44.8530 N.3     0  UNK0       -0.3240
     25  H         36.8180    7.8550  -44.4440 H       0  UNK0        0.1690
     26  H         37.9730    7.1160  -45.4870 H       0  UNK0        0.1690
     27  O         41.7120    0.0320  -36.1700 O.3     0  UNK0       -0.3260
     28  C         42.9870   -0.5730  -36.3780 C.3     0  UNK0        0.1810
@<TRIPOS>BOND
     1    22    21    2
     2    23    21    2
     3    26    24    1
     4    21    24    1
     5    21    18    1
     6    24    25    1
     7    18    19   ar
     8    18    17   ar
     9    19    20   ar
    10    17    16   ar
    11    20    15   ar
    12    16    15   ar
    13    15    14    1
    14    14    12    1
    15    11    10    2
    16    12    10   am
    17    12    13    1
    18    10     8    1
    19     8     5   ar
    20     8     9   ar
    21     5     1   ar
    22     9     7   ar
    23     1     7   ar
    24     1     3   ar
    25     7     6   ar
    26    28    27    1
    27     3     2   ar
    28     6    27    1
    29     6     4   ar
    30     2     4   ar
@<TRIPOS>MOLECULE
/Users/evelyn/Desktop/new_docking/c8_charged_docking_4lxz.pdbqt
 28 30 0 0 0
SMALL
GASTEIGER

@<TRIPOS>ATOM
      1  C         40.7220    3.4140  -37.1450 C.ar    0  UNK0        0.0270
      2  C         42.4790    3.4060  -35.4880 C.ar    0  UNK0        0.0020
      3  C         41.5910    4.1260  -36.3000 C.ar    0  UNK0        0.0020
      4  C         42.5060    2.0080  -35.5120 C.ar    0  UNK0        0.0260
      5  C         39.7130    3.7550  -38.0840 C.ar    0  UNK0        0.0320
      6  C         41.6500    1.2810  -36.3450 C.ar    0  UNK0        0.1170
      7  C         40.7800    2.0250  -37.1390 C.ar    0  UNK0        0.1220
      8  C         39.2300    2.5670  -38.5830 C.ar    0  UNK0        0.1550
      9  O         39.8700    1.5120  -38.0160 O.2     0  UNK0       -0.3000
     10  C         38.2190    2.2930  -39.5460 C.2     0  UNK0        0.2770
     11  O         38.0170    1.1600  -40.0540 O.2     0  UNK0       -0.2650
     12  N         37.4180    3.3760  -39.9750 N.am    0  UNK0       -0.3360
     13  H         37.5960    4.2960  -39.5810 H       0  UNK0        0.1640
     14  C         36.3730    3.2610  -40.9660 C.3     0  UNK0        0.1270
     15  C         35.0060    3.1820  -40.3460 C.ar    0  UNK0       -0.0000
     16  C         34.8710    3.1470  -38.9570 C.ar    0  UNK0       -0.0020
     17  C         33.6030    3.0720  -38.3810 C.ar    0  UNK0        0.0130
     18  C         32.4700    3.0320  -39.1930 C.ar    0  UNK0        0.1030
     19  C         32.6050    3.0670  -40.5820 C.ar    0  UNK0        0.0130
     20  C         33.8730    3.1420  -41.1580 C.ar    0  UNK0       -0.0020
     21  S         30.8820    2.9410  -38.4730 S.O2    0  UNK0        0.2580
     22  O         31.0390    2.7720  -37.0350 O.2     0  UNK0       -0.2010
     23  O         30.0760    4.0370  -38.9880 O.2     0  UNK0       -0.2010
     24  N         30.3060    1.4760  -39.1390 N.3     0  UNK0       -0.3240
     25  H         30.4540    0.6150  -38.5970 H       0  UNK0        0.1690
     26  H         30.3900    1.3480  -40.1550 H       0  UNK0        0.1690
     27  O         41.6800   -0.0820  -36.3660 O.3     0  UNK0       -0.3260
     28  C         42.9500   -0.7050  -36.1940 C.3     0  UNK0        0.1810
@<TRIPOS>BOND
     1    20    19   ar
     2    20    15   ar
     3    14    15    1
     4    14    12    1
     5    19    18   ar
     6    15    16   ar
     7    26    24    1
     8    11    10    2
     9    12    13    1
    10    12    10   am
    11    10     8    1
    12    18    21    1
    13    18    17   ar
    14    24    25    1
    15    24    21    1
    16    23    21    2
    17    16    17   ar
    18     8     5   ar
    19     8     9   ar
    20    21    22    2
    21     5     1   ar
    22     9     7   ar
    23     1     7   ar
    24     1     3   ar
    25     7     6   ar
    26    27     6    1
    27    27    28    1
    28     6     4   ar
    29     3     2   ar
    30     4     2   ar
@<TRIPOS>MOLECULE
/Users/evelyn/Desktop/new_docking/c8_charged_docking_4lxz.pdbqt
 28 30 0 0 0
SMALL
GASTEIGER

@<TRIPOS>ATOM
      1  C         26.6170   -8.3180  -24.2050 C.ar    0  UNK0        0.0270
      2  C         24.7450   -9.8440  -24.1960 C.ar    0  UNK0        0.0020
      3  C         25.6240   -9.0110  -23.4910 C.ar    0  UNK0        0.0020
      4  C         24.8460   -9.9890  -25.5830 C.ar    0  UNK0        0.0260
      5  C         27.6610   -7.4140  -23.8770 C.ar    0  UNK0        0.0320
      6  C         25.8260   -9.3100  -26.3140 C.ar    0  UNK0        0.1170
      7  C         26.6850   -8.4900  -25.5840 C.ar    0  UNK0        0.1220
      8  C         28.2880   -7.0980  -25.0610 C.ar    0  UNK0        0.1550
      9  O         27.7030   -7.7460  -26.1010 O.2     0  UNK0       -0.3000
     10  C         29.3910   -6.2460  -25.3420 C.2     0  UNK0        0.2770
     11  O         29.5890   -5.6910  -26.4540 O.2     0  UNK0       -0.2650
     12  N         30.3350   -6.0390  -24.3100 N.am    0  UNK0       -0.3360
     13  H         30.1870   -6.5060  -23.4190 H       0  UNK0        0.1640
     14  C         31.5200   -5.2250  -24.4530 C.3     0  UNK0        0.1270
     15  C         32.4630   -5.3840  -23.2940 C.2     0  UNK0       -0.0000
     16  C         33.7150   -4.7680  -23.3240 C.3     0  UNK0       -0.0020
     17  C         34.5920   -4.9160  -22.2490 C.2     0  UNK0        0.0130
     18  C         34.2180   -5.6810  -21.1450 C.2     0  UNK0        0.1030
     19  C         32.9660   -6.2980  -21.1150 C.3     0  UNK0        0.0130
     20  C         32.0890   -6.1500  -22.1900 C.2     0  UNK0       -0.0020
     21  S         35.3140   -5.8670  -19.7990 S.O2    0  UNK0        0.2580
     22  O         35.0350   -4.8150  -18.8310 O.2     0  UNK0       -0.2010
     23  O         35.2980   -7.2600  -19.3780 O.2     0  UNK0       -0.2010
     24  N         36.8130   -5.5380  -20.5520 N.3     0  UNK0       -0.3240
     25  H         37.4000   -4.8010  -20.1420 H       0  UNK0        0.1690
     26  H         36.8500   -5.5790  -21.5770 H       0  UNK0        0.1690
     27  O         25.9220   -9.4550  -27.6650 O.3     0  UNK0       -0.3260
     28  C         24.7040   -9.6140  -28.3880 C.3     0  UNK0        0.1810
@<TRIPOS>BOND
     1    28    27    1
     2    27     6    1
     3    11    10    2
     4     6     7   ar
     5     6     4   ar
     6     9     7   ar
     7     9     8   ar
     8     7     1   ar
     9     4     2   ar
    10    10     8    1
    11    10    12   am
    12     8     5   ar
    13    14    12    1
    14    14    15    1
    15    12    13    1
    16     1     5   ar
    17     1     3   ar
    18     2     3   ar
    19    16    15    1
    20    16    17    1
    21    15    20    2
    22    17    18    2
    23    20    19    1
    24    26    24    1
    25    18    19    1
    26    18    21    1
    27    24    25    1
    28    24    21    1
    29    21    23    2
    30    21    22    2
@<TRIPOS>MOLECULE
/Users/evelyn/Desktop/new_docking/c8_charged_docking_4lxz.pdbqt
 28 30 0 0 0
SMALL
GASTEIGER

@<TRIPOS>ATOM
      1  C         40.8940    2.3600  -36.8620 C.ar    0  UNK0        0.0270
      2  C         42.6210    3.3480  -35.4930 C.ar    0  UNK0        0.0020
      3  C         42.0010    2.2020  -36.0090 C.ar    0  UNK0        0.0020
      4  C         42.1560    4.6260  -35.8140 C.ar    0  UNK0        0.0260
      5  C         40.0210    1.4900  -37.5660 C.ar    0  UNK0        0.0320
      6  C         41.0570    4.8070  -36.6590 C.ar    0  UNK0        0.1170
      7  C         40.4620    3.6490  -37.1570 C.ar    0  UNK0        0.1220
      8  C         39.1260    2.2940  -38.2340 C.ar    0  UNK0        0.1550
      9  O         39.3850    3.6050  -37.9920 O.2     0  UNK0       -0.3000
     10  C         38.0350    1.9780  -39.0890 C.2     0  UNK0        0.2770
     11  O         38.0150    0.9950  -39.8760 O.2     0  UNK0       -0.2650
     12  N         36.9180    2.8450  -39.0690 N.am    0  UNK0       -0.3360
     13  H         36.9430    3.6520  -38.4500 H       0  UNK0        0.1640
     14  C         35.7490    2.6720  -39.9000 C.3     0  UNK0        0.1270
     15  C         35.8350    3.4640  -41.1740 C.ar    0  UNK0       -0.0000
     16  C         34.8520    3.3170  -42.1540 C.ar    0  UNK0       -0.0020
     17  C         34.9310    4.0500  -43.3380 C.ar    0  UNK0        0.0130
     18  C         35.9940    4.9310  -43.5430 C.ar    0  UNK0        0.1030
     19  C         36.9770    5.0770  -42.5630 C.ar    0  UNK0        0.0130
     20  C         36.8970    4.3440  -41.3790 C.ar    0  UNK0       -0.0020
     21  S         36.0930    5.8500  -45.0240 S.O2    0  UNK0        0.2580
     22  O         36.6370    4.9880  -46.0640 O.2     0  UNK0       -0.2010
     23  O         34.8220    6.5250  -45.2350 O.2     0  UNK0       -0.2010
     24  N         37.2700    7.0160  -44.6050 N.3     0  UNK0       -0.3240
     25  H         37.9710    6.7540  -43.9000 H       0  UNK0        0.1690
     26  H         36.9720    7.9970  -44.5510 H       0  UNK0        0.1690
     27  O         40.6050    6.0550  -36.9690 O.3     0  UNK0       -0.3260
     28  C         41.5810    7.0880  -37.0810 C.3     0  UNK0        0.1810
@<TRIPOS>BOND
     1    22    21    2
     2    23    21    2
     3    21    24    1
     4    21    18    1
     5    24    26    1
     6    24    25    1
     7    18    17   ar
     8    18    19   ar
     9    17    16   ar
    10    19    20   ar
    11    16    15   ar
    12    20    15   ar
    13    15    14    1
    14    14    12    1
    15    11    10    2
    16    10    12   am
    17    10     8    1
    18    12    13    1
    19     8     9   ar
    20     8     5   ar
    21     9     7   ar
    22     5     1   ar
    23     7     1   ar
    24     7     6   ar
    25    28    27    1
    26    27     6    1
    27     1     3   ar
    28     6     4   ar
    29     3     2   ar
    30     4     2   ar
@<TRIPOS>MOLECULE
/Users/evelyn/Desktop/new_docking/c8_charged_docking_4lxz.pdbqt
 28 30 0 0 0
SMALL
GASTEIGER

@<TRIPOS>ATOM
      1  C         26.5730   -8.4750  -25.9400 C.ar    0  UNK0        0.0270
      2  C         24.8050  -10.0060  -25.3360 C.ar    0  UNK0        0.0020
      3  C         25.5740   -9.3840  -26.3300 C.ar    0  UNK0        0.0020
      4  C         25.0210   -9.7330  -23.9820 C.ar    0  UNK0        0.0260
      5  C         27.5300   -7.6680  -26.6100 C.ar    0  UNK0        0.0320
      6  C         26.0080   -8.8320  -23.5720 C.ar    0  UNK0        0.1170
      7  C         26.7560   -8.2310  -24.5830 C.ar    0  UNK0        0.1220
      8  C         28.2220   -6.9930  -25.6310 C.ar    0  UNK0        0.1550
      9  O         27.7610   -7.3280  -24.3980 O.2     0  UNK0       -0.3000
     10  C         29.2870   -6.0540  -25.7100 C.2     0  UNK0        0.2770
     11  O         29.4610   -5.2640  -26.6750 O.2     0  UNK0       -0.2650
     12  N         30.2200   -6.0340  -24.6480 N.am    0  UNK0       -0.3360
     13  H         30.0920   -6.6870  -23.8790 H       0  UNK0        0.1640
     14  C         31.3680   -5.1580  -24.6000 C.3     0  UNK0        0.1270
     15  C         32.2420   -5.4300  -23.4080 C.ar    0  UNK0       -0.0000
     16  C         33.5360   -4.9080  -23.3580 C.ar    0  UNK0       -0.0020
     17  C         34.3480   -5.1620  -22.2530 C.ar    0  UNK0        0.0130
     18  C         33.8690   -5.9380  -21.1990 C.ar    0  UNK0        0.1030
     19  C         32.5750   -6.4610  -21.2490 C.ar    0  UNK0        0.0130
     20  C         31.7630   -6.2070  -22.3540 C.ar    0  UNK0       -0.0020
     21  S         34.8850   -6.2550  -19.8150 S.O2    0  UNK0        0.2580
     22  O         34.4430   -5.4060  -18.7170 O.2     0  UNK0       -0.2010
     23  O         34.9720   -7.6950  -19.6250 O.2     0  UNK0       -0.2010
     24  N         36.3930   -5.6830  -20.3800 N.3     0  UNK0       -0.3240
     25  H         36.9690   -5.1360  -19.7300 H       0  UNK0        0.1690
     26  H         36.4460   -5.3630  -21.3550 H       0  UNK0        0.1690
     27  O         26.2150   -8.5680  -22.2510 O.3     0  UNK0       -0.3260
     28  C         25.4950   -9.3620  -21.3110 C.3     0  UNK0        0.1810
@<TRIPOS>BOND
     1    11    10    2
     2     5     1   ar
     3     5     8   ar
     4     3     1   ar
     5     3     2   ar
     6     1     7   ar
     7    10     8    1
     8    10    12   am
     9     8     9   ar
    10     2     4   ar
    11    12    14    1
    12    12    13    1
    13    14    15    1
    14     7     9   ar
    15     7     6   ar
    16     4     6   ar
    17     6    27    1
    18    15    16   ar
    19    15    20   ar
    20    16    17   ar
    21    20    19   ar
    22    17    18   ar
    23    27    28    1
    24    26    24    1
    25    19    18   ar
    26    18    21    1
    27    24    21    1
    28    24    25    1
    29    21    23    2
    30    21    22    2
@<TRIPOS>MOLECULE
/Users/evelyn/Desktop/new_docking/c8_charged_docking_4lxz.pdbqt
 28 30 0 0 0
SMALL
GASTEIGER

@<TRIPOS>ATOM
      1  C         40.1270    2.5070  -37.9600 C.ar    0  UNK0        0.0270
      2  C         41.6260    2.2440  -36.0840 C.ar    0  UNK0        0.0020
      3  C         40.7950    1.6650  -37.0540 C.ar    0  UNK0        0.0020
      4  C         41.7920    3.6300  -36.0110 C.ar    0  UNK0        0.0260
      5  C         39.2330    2.3250  -39.0470 C.ar    0  UNK0        0.0320
      6  C         41.1370    4.4860  -36.9020 C.ar    0  UNK0        0.1170
      7  C         40.3190    3.8810  -37.8540 C.ar    0  UNK0        0.1220
      8  C         38.9420    3.5810  -39.5260 C.ar    0  UNK0        0.1550
      9  O         39.5960    4.5320  -38.8090 O.2     0  UNK0       -0.3000
     10  C         38.1080    4.0100  -40.5950 C.2     0  UNK0        0.2770
     11  O         38.4570    4.8440  -41.4720 O.2     0  UNK0       -0.2650
     12  N         36.7970    3.4830  -40.6510 N.am    0  UNK0       -0.3360
     13  H         36.5080    2.8270  -39.9310 H       0  UNK0        0.1640
     14  C         35.8270    3.8450  -41.6590 C.3     0  UNK0        0.1270
     15  C         34.6040    2.9730  -41.6100 C.ar    0  UNK0       -0.0000
     16  C         33.8100    2.9480  -40.4620 C.ar    0  UNK0       -0.0020
     17  C         32.6760    2.1380  -40.4150 C.ar    0  UNK0        0.0130
     18  C         32.3350    1.3520  -41.5150 C.ar    0  UNK0        0.1030
     19  C         33.1280    1.3760  -42.6630 C.ar    0  UNK0        0.0130
     20  C         34.2630    2.1860  -42.7100 C.ar    0  UNK0       -0.0020
     21  S         30.9140    0.3390  -41.4580 S.O2    0  UNK0        0.2580
     22  O         29.8760    1.0450  -40.7210 O.2     0  UNK0       -0.2010
     23  O         30.6420   -0.1520  -42.8000 O.2     0  UNK0       -0.2010
     24  N         31.4790   -0.9610  -40.5030 N.3     0  UNK0       -0.3240
     25  H         32.3800   -0.8430  -40.0230 H       0  UNK0        0.1690
     26  H         31.3120   -1.9140  -40.8470 H       0  UNK0        0.1690
     27  O         41.3010    5.8370  -36.8270 O.3     0  UNK0       -0.3260
     28  C         40.3020    6.5740  -36.1260 C.3     0  UNK0        0.1810
@<TRIPOS>BOND
     1    23    21    2
     2    20    19   ar
     3    20    15   ar
     4    19    18   ar
     5    14    15    1
     6    14    12    1
     7    15    16   ar
     8    18    21    1
     9    18    17   ar
    10    11    10    2
    11    21    22    2
    12    21    24    1
    13    26    24    1
    14    12    10   am
    15    12    13    1
    16    10     8    1
    17    24    25    1
    18    16    17   ar
    19     8     5   ar
    20     8     9   ar
    21     5     1   ar
    22     9     7   ar
    23     1     7   ar
    24     1     3   ar
    25     7     6   ar
    26     3     2   ar
    27     6    27    1
    28     6     4   ar
    29    27    28    1
    30     2     4   ar
@<TRIPOS>MOLECULE
/Users/evelyn/Desktop/new_docking/c8_charged_docking_4lxz.pdbqt
 28 30 0 0 0
SMALL
GASTEIGER

@<TRIPOS>ATOM
      1  C         40.5560    4.8160  -37.6040 C.ar    0  UNK0        0.0270
      2  C         41.7180    4.1210  -35.6040 C.ar    0  UNK0        0.0020
      3  C         41.2710    5.1520  -36.4410 C.ar    0  UNK0        0.0020
      4  C         41.4630    2.7810  -35.9120 C.ar    0  UNK0        0.0260
      5  C         39.9540    5.5340  -38.6710 C.ar    0  UNK0        0.0320
      6  C         40.7540    2.4240  -37.0630 C.ar    0  UNK0        0.1170
      7  C         40.3220    3.4720  -37.8740 C.ar    0  UNK0        0.1220
      8  C         39.4020    4.5940  -39.5090 C.ar    0  UNK0        0.1550
      9  O         39.6200    3.3400  -39.0350 O.2     0  UNK0       -0.3000
     10  C         38.6790    4.7290  -40.7270 C.2     0  UNK0        0.2770
     11  O         39.1930    4.6080  -41.8700 O.2     0  UNK0       -0.2650
     12  N         37.3050    5.0480  -40.6370 N.am    0  UNK0       -0.3360
     13  H         36.8950    5.1690  -39.7150 H       0  UNK0        0.1640
     14  C         36.4480    5.2460  -41.7840 C.3     0  UNK0        0.1270
     15  C         35.3370    4.2350  -41.8440 C.ar    0  UNK0       -0.0000
     16  C         34.9460    3.7000  -43.0720 C.ar    0  UNK0       -0.0020
     17  C         33.9140    2.7630  -43.1280 C.ar    0  UNK0        0.0130
     18  C         33.2720    2.3620  -41.9570 C.ar    0  UNK0        0.1030
     19  C         33.6620    2.8980  -40.7290 C.ar    0  UNK0        0.0130
     20  C         34.6940    3.8340  -40.6730 C.ar    0  UNK0       -0.0020
     21  S         31.9810    1.1890  -42.0270 S.O2    0  UNK0        0.2580
     22  O         30.7160    1.8870  -41.8510 O.2     0  UNK0       -0.2010
     23  O         32.1850    0.3460  -43.1950 O.2     0  UNK0       -0.2010
     24  N         32.3010    0.2680  -40.6230 N.3     0  UNK0       -0.3240
     25  H         32.3100   -0.7550  -40.7160 H       0  UNK0        0.1690
     26  H         31.9110    0.6030  -39.7340 H       0  UNK0        0.1690
     27  O         40.5070    1.1170  -37.3600 O.3     0  UNK0       -0.3260
     28  C         40.9790    0.1420  -36.4330 C.3     0  UNK0        0.1810
@<TRIPOS>BOND
     1    23    21    2
     2    17    16   ar
     3    17    18   ar
     4    16    15   ar
     5    21    18    1
     6    21    22    2
     7    21    24    1
     8    18    19   ar
     9    11    10    2
    10    15    14    1
    11    15    20   ar
    12    14    12    1
    13    19    20   ar
    14    10    12   am
    15    10     8    1
    16    25    24    1
    17    12    13    1
    18    24    26    1
    19     8     9   ar
    20     8     5   ar
    21     9     7   ar
    22     5     1   ar
    23     7     1   ar
    24     7     6   ar
    25     1     3   ar
    26    27     6    1
    27    27    28    1
    28     6     4   ar
    29     3     2   ar
    30     4     2   ar
@<TRIPOS>MOLECULE
/Users/evelyn/Desktop/new_docking/c8_charged_docking_4lxz.pdbqt
 28 30 0 0 0
SMALL
GASTEIGER

@<TRIPOS>ATOM
      1  C         40.9930    2.1150  -36.8120 C.ar    0  UNK0        0.0270
      2  C         42.7650    2.8540  -35.3460 C.ar    0  UNK0        0.0020
      3  C         42.0720    1.8050  -35.9650 C.ar    0  UNK0        0.0020
      4  C         42.3960    4.1860  -35.5590 C.ar    0  UNK0        0.0260
      5  C         40.0720    1.3740  -37.5960 C.ar    0  UNK0        0.0320
      6  C         41.3260    4.5170  -36.3960 C.ar    0  UNK0        0.1170
      7  C         40.6590    3.4520  -36.9980 C.ar    0  UNK0        0.1220
      8  C         39.2470    2.2940  -38.2000 C.ar    0  UNK0        0.1550
      9  O         39.5950    3.5580  -37.8440 O.2     0  UNK0       -0.3000
     10  C         38.1490    2.1320  -39.0900 C.2     0  UNK0        0.2770
     11  O         38.0130    1.1560  -39.8730 O.2     0  UNK0       -0.2650
     12  N         37.1700    3.1520  -39.1100 N.am    0  UNK0       -0.3360
     13  H         37.2920    3.9520  -38.4940 H       0  UNK0        0.1640
     14  C         36.0160    3.1430  -39.9780 C.3     0  UNK0        0.1270
     15  C         34.7260    3.2390  -39.2120 C.ar    0  UNK0       -0.0000
     16  C         34.6620    4.0080  -38.0490 C.ar    0  UNK0       -0.0020
     17  C         33.4660    4.0960  -37.3360 C.ar    0  UNK0        0.0130
     18  C         32.3340    3.4160  -37.7860 C.ar    0  UNK0        0.1030
     19  C         32.3990    2.6470  -38.9490 C.ar    0  UNK0        0.0130
     20  C         33.5950    2.5590  -39.6610 C.ar    0  UNK0       -0.0020
     21  S         30.8370    3.5260  -36.8950 S.O2    0  UNK0        0.2580
     22  O         31.1530    3.6590  -35.4800 O.2     0  UNK0       -0.2010
     23  O         29.9870    4.5150  -37.5420 O.2     0  UNK0       -0.2010
     24  N         30.1790    1.9730  -37.1690 N.3     0  UNK0       -0.3240
     25  H         29.1590    1.8700  -37.1080 H       0  UNK0        0.1690
     26  H         30.7020    1.1640  -36.8120 H       0  UNK0        0.1690
     27  O         40.9700    5.8170  -36.6010 O.3     0  UNK0       -0.3260
     28  C         39.8250    6.2930  -35.8980 C.3     0  UNK0        0.1810
@<TRIPOS>BOND
     1    14    15    1
     2    14    12    1
     3    11    10    2
     4    20    15   ar
     5    20    19   ar
     6    15    16   ar
     7    12    10   am
     8    12    13    1
     9    10     8    1
    10    19    18   ar
    11     8     9   ar
    12     8     5   ar
    13    16    17   ar
    14     9     7   ar
    15    18    17   ar
    16    18    21    1
    17     5     1   ar
    18    23    21    2
    19    24    25    1
    20    24    21    1
    21    24    26    1
    22     7     1   ar
    23     7     6   ar
    24    21    22    2
    25     1     3   ar
    26    27     6    1
    27    27    28    1
    28     6     4   ar
    29     3     2   ar
    30     4     2   ar
@<TRIPOS>MOLECULE
/Users/evelyn/Desktop/new_docking/c8_charged_docking_4lxz.pdbqt
 28 30 0 0 0
SMALL
GASTEIGER

@<TRIPOS>ATOM
      1  C         31.8990   -7.2760  -20.5380 C.ar    0  UNK0        0.0270
      2  C         32.8210   -8.4310  -18.6280 C.ar    0  UNK0        0.0020
      3  C         31.7380   -8.1930  -19.4840 C.ar    0  UNK0        0.0020
      4  C         34.0420   -7.7750  -18.8100 C.ar    0  UNK0        0.0260
      5  C         31.0800   -6.7750  -21.5840 C.ar    0  UNK0        0.0320
      6  C         34.2250   -6.8590  -19.8510 C.ar    0  UNK0        0.1170
      7  C         33.1290   -6.6440  -20.6850 C.ar    0  UNK0        0.1220
      8  C         31.8540   -5.8830  -22.2890 C.ar    0  UNK0        0.1550
      9  O         33.0980   -5.7960  -21.7520 O.2     0  UNK0       -0.3000
     10  C         31.5640   -5.0840  -23.4300 C.2     0  UNK0        0.2770
     11  O         32.2170   -4.0590  -23.7590 O.2     0  UNK0       -0.2650
     12  N         30.4520   -5.4550  -24.2200 N.am    0  UNK0       -0.3360
     13  H         29.9110   -6.2700  -23.9420 H       0  UNK0        0.1640
     14  C         30.0170   -4.7280  -25.3900 C.3     0  UNK0        0.1270
     15  C         29.5180   -5.6400  -26.4750 C.ar    0  UNK0       -0.0000
     16  C         28.8560   -6.8230  -26.1430 C.ar    0  UNK0       -0.0020
     17  C         28.3950   -7.6710  -27.1500 C.ar    0  UNK0        0.0130
     18  C         28.5960   -7.3370  -28.4890 C.ar    0  UNK0        0.1030
     19  C         29.2580   -6.1540  -28.8210 C.ar    0  UNK0        0.0130
     20  C         29.7200   -5.3060  -27.8140 C.ar    0  UNK0       -0.0020
     21  S         28.0170   -8.3970  -29.7500 S.O2    0  UNK0        0.2580
     22  O         26.7120   -7.9220  -30.1860 O.2     0  UNK0       -0.2010
     23  O         29.0830   -8.5810  -30.7240 O.2     0  UNK0       -0.2010
     24  N         27.8110   -9.8540  -28.8810 N.3     0  UNK0       -0.3240
     25  H         27.1010   -9.8700  -28.1380 H       0  UNK0        0.1690
     26  H         28.6510  -10.4040  -28.6650 H       0  UNK0        0.1690
     27  O         35.4160   -6.2210  -20.0250 O.3     0  UNK0       -0.3260
     28  C         35.6150   -5.0090  -19.3000 C.3     0  UNK0        0.1810
@<TRIPOS>BOND
     1    23    21    2
     2    22    21    2
     3    21    24    1
     4    21    18    1
     5    24    26    1
     6    24    25    1
     7    19    18   ar
     8    19    20   ar
     9    18    17   ar
    10    20    15   ar
    11    17    16   ar
    12    15    16   ar
    13    15    14    1
    14    14    12    1
    15    12    13    1
    16    12    10   am
    17    11    10    2
    18    10     8    1
    19     8     9   ar
    20     8     5   ar
    21     9     7   ar
    22     5     1   ar
    23     7     1   ar
    24     7     6   ar
    25     1     3   ar
    26    27     6    1
    27    27    28    1
    28     6     4   ar
    29     3     2   ar
    30     4     2   ar
