@<TRIPOS>MOLECULE
17601396
41 43 1 0 0
SMALL
AMBER ff14SB


@<TRIPOS>ATOM
      1 S1         -5.8445   -1.0719    0.9295 S.o2      1 UNK    1.5262
      2 O1          2.4262    0.1576   -0.5271 O.2       1 UNK    0.0568
      3 O2          4.1206   -2.1349   -1.1651 O.3       1 UNK   -0.3119
      4 O3          0.1495    2.8326    0.0444 O.2       1 UNK   -0.6001
      5 O4         -6.6072   -0.0189    1.5853 O.2       1 UNK   -0.6578
      6 O5         -6.5161   -1.9955    0.0257 O.2       1 UNK   -0.6578
      7 N1          0.0563    1.0922   -1.4519 N.am      1 UNK   -0.5469
      8 N2         -5.0156   -1.9751    2.1197 N.pl3     1 UNK   -1.0267
      9 C1          3.8980    0.8306    1.0492 C.ar      1 UNK   -0.0830
     10 C2         -2.3725    0.8376   -1.2774 C.ar      1 UNK   -0.0623
     11 C3         -1.2225    1.4712   -2.0088 C.3       1 UNK    0.1263
     12 C4          3.6117   -0.1272    0.0817 C.ar      1 UNK   -0.1448
     13 C5          1.9513    1.2940    0.0464 C.ar      1 UNK   -0.0912
     14 C6          2.8143    1.7471    1.0174 C.ar      1 UNK   -0.0970
     15 C7         -4.5086   -0.3368    0.0792 C.ar      1 UNK   -0.3805
     16 C8         -2.8619   -0.4026   -1.6872 C.ar      1 UNK   -0.1430
     17 C9         -2.9515    1.4907   -0.1892 C.ar      1 UNK   -0.1430
     18 C10         0.7085    1.8062   -0.4208 C.2       1 UNK    0.6973
     19 C11         4.4334   -1.2147   -0.2087 C.ar      1 UNK    0.1331
     20 C12         5.0878    0.7046    1.7873 C.ar      1 UNK   -0.1060
     21 C13        -3.9298   -0.9899   -1.0089 C.ar      1 UNK   -0.0215
     22 C14        -4.0195    0.9036    0.4890 C.ar      1 UNK   -0.0215
     23 C15         5.6111   -1.3205    0.5373 C.ar      1 UNK   -0.1810
     24 C16         5.9348   -0.3793    1.5178 C.ar      1 UNK   -0.1140
     25 C17         5.0462   -3.2007   -1.3647 C.3       1 UNK    0.1117
     26 H1         -1.2243    1.1652   -3.0612 H         1 UNK    0.0757
     27 H2         -1.3187    2.5631   -1.9981 H         1 UNK    0.0757
     28 H3          2.6838    2.6286    1.6299 H         1 UNK    0.1840
     29 H4          0.4971    0.2502   -1.8116 H         1 UNK    0.3265
     30 H5         -2.4172   -0.9226   -2.5317 H         1 UNK    0.1520
     31 H6         -2.5839    2.4587    0.1396 H         1 UNK    0.1520
     32 H7         -4.2902   -1.9596   -1.3408 H         1 UNK    0.1535
     33 H8         -4.4512    1.4274    1.3372 H         1 UNK    0.1535
     34 H9          5.3527    1.4282    2.5523 H         1 UNK    0.1460
     35 H10         6.3265   -2.1254    0.3981 H         1 UNK    0.1430
     36 H11         6.8577   -0.4872    2.0822 H         1 UNK    0.1380
     37 H12        -5.0104   -2.9980    2.0244 H         1 UNK    0.4473
     38 H13        -5.0733   -1.6485    3.0921 H         1 UNK    0.4473
     39 H14         4.6427   -3.8376   -2.1586 H         1 UNK    0.0480
     40 H15         5.1400   -3.8235   -0.4686 H         1 UNK    0.0480
     41 H16         6.0165   -2.8295   -1.7115 H         1 UNK    0.0480
@<TRIPOS>BOND
     1    1    5 2
     2    1    6 2
     3    1    8 1
     4    1   15 1
     5    2   12 ar
     6    2   13 ar
     7    3   19 1
     8    3   25 1
     9    4   18 2
    10    7   11 1
    11    7   18 am
    12    7   29 1
    13    8   37 1
    14    8   38 1
    15    9   12 ar
    16    9   14 ar
    17    9   20 ar
    18   10   11 1
    19   10   16 ar
    20   10   17 ar
    21   11   26 1
    22   11   27 1
    23   12   19 ar
    24   13   14 ar
    25   13   18 1
    26   14   28 1
    27   15   21 ar
    28   15   22 ar
    29   16   21 ar
    30   16   30 1
    31   17   22 ar
    32   17   31 1
    33   19   23 ar
    34   20   24 ar
    35   20   34 1
    36   21   32 1
    37   22   33 1
    38   23   24 ar
    39   23   35 1
    40   24   36 1
    41   25   39 1
    42   25   40 1
    43   25   41 1
@<TRIPOS>SUBSTRUCTURE
     1 UNK     1 RESIDUE           4 A     UNK     0 ROOT
