@<TRIPOS>MOLECULE
/Users/evelyn/Desktop/new_docking/c8_charged_docking_1t64.pdbqt
 28 30 0 0 0
SMALL
GASTEIGER

@<TRIPOS>ATOM
      1  C         61.8760   74.9620    9.8140 C.ar    0  UNK0        0.0270
      2  C         61.0440   72.8170    9.0790 C.ar    0  UNK0        0.0020
      3  C         61.8490   73.9410    8.8480 C.ar    0  UNK0        0.0020
      4  C         60.2800   72.7040   10.2440 C.ar    0  UNK0        0.0260
      5  C         62.5330   76.2120    9.9540 C.ar    0  UNK0        0.0320
      6  C         60.2910   73.7080   11.2180 C.ar    0  UNK0        0.1170
      7  C         61.1010   74.8120   10.9600 C.ar    0  UNK0        0.1220
      8  C         62.1220   76.7350   11.1580 C.ar    0  UNK0        0.1550
      9  O         61.2530   75.8940   11.7760 O.2     0  UNK0       -0.3000
     10  C         62.4500   77.9530   11.8150 C.2     0  UNK0        0.2770
     11  O         62.3460   78.1360   13.0560 O.2     0  UNK0       -0.2650
     12  N         62.8910   79.0290   11.0110 N.am    0  UNK0       -0.3360
     13  H         62.9540   78.8890   10.0060 H       0  UNK0        0.1640
     14  C         63.2330   80.3340   11.5290 C.3     0  UNK0        0.1270
     15  C         64.7150   80.5020   11.7150 C.ar    0  UNK0       -0.0000
     16  C         65.3060   80.1800   12.9380 C.ar    0  UNK0       -0.0020
     17  C         66.6810   80.3370   13.1110 C.ar    0  UNK0        0.0130
     18  C         67.4660   80.8170   12.0630 C.ar    0  UNK0        0.1030
     19  C         66.8750   81.1380   10.8400 C.ar    0  UNK0        0.0130
     20  C         65.5000   80.9810   10.6660 C.ar    0  UNK0       -0.0020
     21  S         69.1870   81.0120   12.2790 S.O2    0  UNK0        0.2580
     22  O         69.8050   81.1250   10.9650 O.2     0  UNK0       -0.2010
     23  O         69.4130   82.0480   13.2760 O.2     0  UNK0       -0.2010
     24  N         69.6040   79.4990   12.9550 N.3     0  UNK0       -0.3240
     25  H         69.1090   78.6690   12.6070 H       0  UNK0        0.1690
     26  H         69.8160   79.4680   13.9590 H       0  UNK0        0.1690
     27  O         59.5450   73.5950   12.3530 O.3     0  UNK0       -0.3260
     28  C         60.1790   73.0180   13.4920 C.3     0  UNK0        0.1810
@<TRIPOS>BOND
     1     3     2   ar
     2     3     1   ar
     3     2     4   ar
     4     1     5   ar
     5     1     7   ar
     6     5     8   ar
     7    13    12    1
     8     4     6   ar
     9    20    19   ar
    10    20    15   ar
    11    19    18   ar
    12     7     6   ar
    13     7     9   ar
    14    22    21    2
    15    12    14    1
    16    12    10   am
    17     8     9   ar
    18     8    10    1
    19     6    27    1
    20    14    15    1
    21    15    16   ar
    22    10    11    2
    23    18    21    1
    24    18    17   ar
    25    21    24    1
    26    21    23    2
    27    27    28    1
    28    25    24    1
    29    16    17   ar
    30    24    26    1
@<TRIPOS>MOLECULE
/Users/evelyn/Desktop/new_docking/c8_charged_docking_1t64.pdbqt
 28 30 0 0 0
SMALL
GASTEIGER

@<TRIPOS>ATOM
      1  C         47.9540   59.6420   12.4950 C.ar    0  UNK0        0.0270
      2  C         46.5430   59.4340   10.5460 C.ar    0  UNK0        0.0020
      3  C         47.1610   60.2480   11.5040 C.ar    0  UNK0        0.0020
      4  C         46.7060   58.0450   10.5660 C.ar    0  UNK0        0.0260
      5  C         48.7190   60.0940   13.6020 C.ar    0  UNK0        0.0320
      6  C         47.4890   57.4220   11.5420 C.ar    0  UNK0        0.1170
      7  C         48.0900   58.2580   12.4810 C.ar    0  UNK0        0.1220
      8  C         49.2640   58.9720   14.1820 C.ar    0  UNK0        0.1550
      9  O         48.8880   57.8530   13.5100 O.2     0  UNK0       -0.3000
     10  C         50.1110   58.8160   15.3130 C.2     0  UNK0        0.2770
     11  O         49.7110   58.4560   16.4510 O.2     0  UNK0       -0.2650
     12  N         51.4830   59.1150   15.1470 N.am    0  UNK0       -0.3360
     13  H         51.8030   59.4280   14.2340 H       0  UNK0        0.1640
     14  C         52.4600   59.0320   16.2080 C.3     0  UNK0        0.1270
     15  C         53.1200   60.3550   16.4780 C.ar    0  UNK0       -0.0000
     16  C         54.5020   60.4870   16.3380 C.ar    0  UNK0       -0.0020
     17  C         55.1150   61.7140   16.5900 C.ar    0  UNK0        0.0130
     18  C         54.3470   62.8100   16.9830 C.ar    0  UNK0        0.1030
     19  C         52.9640   62.6780   17.1240 C.ar    0  UNK0        0.0130
     20  C         52.3510   61.4510   16.8710 C.ar    0  UNK0       -0.0020
     21  S         55.1130   64.3470   17.2980 S.O2    0  UNK0        0.2580
     22  O         54.5700   65.3290   16.3710 O.2     0  UNK0       -0.2010
     23  O         55.0690   64.6010   18.7300 O.2     0  UNK0       -0.2010
     24  N         56.7270   64.0030   16.8510 N.3     0  UNK0       -0.3240
     25  H         57.4190   64.7570   16.9470 H       0  UNK0        0.1690
     26  H         56.8770   63.4010   16.0330 H       0  UNK0        0.1690
     27  O         47.6450   56.0680   11.5600 O.3     0  UNK0       -0.3260
     28  C         46.5300   55.2930   11.9930 C.3     0  UNK0        0.1810
@<TRIPOS>BOND
     1     2     4   ar
     2     2     3   ar
     3     4     6   ar
     4     3     1   ar
     5     6    27    1
     6     6     7   ar
     7    27    28    1
     8     7     1   ar
     9     7     9   ar
    10     1     5   ar
    11     9     8   ar
    12     5     8   ar
    13     8    10    1
    14    13    12    1
    15    12    10   am
    16    12    14    1
    17    10    11    2
    18    26    24    1
    19    14    15    1
    20    16    15   ar
    21    16    17   ar
    22    22    21    2
    23    15    20   ar
    24    17    18   ar
    25    24    25    1
    26    24    21    1
    27    20    19   ar
    28    18    19   ar
    29    18    21    1
    30    21    23    2
@<TRIPOS>MOLECULE
/Users/evelyn/Desktop/new_docking/c8_charged_docking_1t64.pdbqt
 28 30 0 0 0
SMALL
GASTEIGER

@<TRIPOS>ATOM
      1  C         64.3950   69.3880   15.6600 C.ar    0  UNK0        0.0270
      2  C         63.5020   67.7910   14.0830 C.ar    0  UNK0        0.0020
      3  C         64.6070   68.3370   14.7510 C.ar    0  UNK0        0.0020
      4  C         62.2100   68.2760   14.3100 C.ar    0  UNK0        0.0260
      5  C         65.2130   70.1830   16.5040 C.ar    0  UNK0        0.0320
      6  C         61.9760   69.3210   15.2090 C.ar    0  UNK0        0.1170
      7  C         63.0950   69.8420   15.8570 C.ar    0  UNK0        0.1220
      8  C         64.3710   71.0570   17.1520 C.ar    0  UNK0        0.1550
      9  O         63.0840   70.8590   16.7660 O.2     0  UNK0       -0.3000
     10  C         64.6300   72.0770   18.1080 C.2     0  UNK0        0.2770
     11  O         63.7380   72.6610   18.7770 O.2     0  UNK0       -0.2650
     12  N         65.9750   72.4750   18.2890 N.am    0  UNK0       -0.3360
     13  H         66.6930   72.0190   17.7330 H       0  UNK0        0.1640
     14  C         66.3910   73.5150   19.2010 C.3     0  UNK0        0.1270
     15  C         67.6170   73.1320   19.9810 C.ar    0  UNK0       -0.0000
     16  C         68.0980   71.8230   19.9270 C.ar    0  UNK0       -0.0020
     17  C         69.2350   71.4660   20.6510 C.ar    0  UNK0        0.0130
     18  C         69.8930   72.4180   21.4290 C.ar    0  UNK0        0.1030
     19  C         69.4130   73.7280   21.4830 C.ar    0  UNK0        0.0130
     20  C         68.2750   74.0840   20.7590 C.ar    0  UNK0       -0.0020
     21  S         71.3170   71.9730   22.3350 S.O2    0  UNK0        0.2580
     22  O         71.4030   72.8320   23.5070 O.2     0  UNK0       -0.2010
     23  O         71.3300   70.5270   22.4950 O.2     0  UNK0       -0.2010
     24  N         72.5520   72.4150   21.2380 N.3     0  UNK0       -0.3240
     25  H         73.5020   72.0710   21.4260 H       0  UNK0        0.1690
     26  H         72.5220   73.3620   20.8420 H       0  UNK0        0.1690
     27  O         60.7160   69.7920   15.4280 O.3     0  UNK0       -0.3260
     28  C         59.6670   69.2210   14.6490 C.3     0  UNK0        0.1810
@<TRIPOS>BOND
     1     2     4   ar
     2     2     3   ar
     3     4     6   ar
     4    28    27    1
     5     3     1   ar
     6     6    27    1
     7     6     7   ar
     8     1     7   ar
     9     1     5   ar
    10     7     9   ar
    11     5     8   ar
    12     9     8   ar
    13     8    10    1
    14    13    12    1
    15    10    12   am
    16    10    11    2
    17    12    14    1
    18    14    15    1
    19    16    15   ar
    20    16    17   ar
    21    15    20   ar
    22    17    18   ar
    23    20    19   ar
    24    26    24    1
    25    24    25    1
    26    24    21    1
    27    18    19   ar
    28    18    21    1
    29    21    23    2
    30    21    22    2
@<TRIPOS>MOLECULE
/Users/evelyn/Desktop/new_docking/c8_charged_docking_1t64.pdbqt
 28 30 0 0 0
SMALL
GASTEIGER

@<TRIPOS>ATOM
      1  C         75.5530   78.7260   -5.2310 C.ar    0  UNK0        0.0270
      2  C         74.8010   79.0230   -2.9550 C.ar    0  UNK0        0.0020
      3  C         75.5520   78.2990   -3.8920 C.ar    0  UNK0        0.0020
      4  C         74.0650   80.1490   -3.3360 C.ar    0  UNK0        0.0260
      5  C         76.1580   78.2870   -6.4380 C.ar    0  UNK0        0.0320
      6  C         74.0520   80.5920   -4.6630 C.ar    0  UNK0        0.1170
      7  C         74.8080   79.8510   -5.5700 C.ar    0  UNK0        0.1220
      8  C         75.7480   79.1600   -7.4190 C.ar    0  UNK0        0.1550
      9  O         74.9280   80.1120   -6.9030 O.2     0  UNK0       -0.3000
     10  C         76.0350   79.2120   -8.8110 C.2     0  UNK0        0.2770
     11  O         76.5210   80.2160   -9.3940 O.2     0  UNK0       -0.2650
     12  N         75.7230   78.0710   -9.5840 N.am    0  UNK0       -0.3360
     13  H         75.3100   77.2680   -9.1170 H       0  UNK0        0.1640
     14  C         75.9300   77.9840  -11.0110 C.3     0  UNK0        0.1270
     15  C         76.2960   76.5940  -11.4500 C.ar    0  UNK0       -0.0000
     16  C         77.0080   76.4000  -12.6350 C.ar    0  UNK0       -0.0020
     17  C         77.3470   75.1100  -13.0430 C.ar    0  UNK0        0.0130
     18  C         76.9730   74.0130  -12.2670 C.ar    0  UNK0        0.1030
     19  C         76.2610   74.2060  -11.0820 C.ar    0  UNK0        0.0130
     20  C         75.9230   75.4960  -10.6740 C.ar    0  UNK0       -0.0020
     21  S         77.3980   72.3980  -12.7770 S.O2    0  UNK0        0.2580
     22  O         77.2890   72.3310  -14.2270 O.2     0  UNK0       -0.2010
     23  O         78.6440   72.0210  -12.1260 O.2     0  UNK0       -0.2010
     24  N         76.1230   71.4930  -12.0870 N.3     0  UNK0       -0.3240
     25  H         75.1820   71.9070  -12.1010 H       0  UNK0        0.1690
     26  H         76.3270   70.9520  -11.2380 H       0  UNK0        0.1690
     27  O         73.3330   81.6890   -5.0310 O.3     0  UNK0       -0.3260
     28  C         73.9980   82.9490   -4.9750 C.3     0  UNK0        0.1810
@<TRIPOS>BOND
     1    22    21    2
     2    17    16   ar
     3    17    18   ar
     4    21    18    1
     5    21    23    2
     6    21    24    1
     7    16    15   ar
     8    18    19   ar
     9    25    24    1
    10    24    26    1
    11    15    14    1
    12    15    20   ar
    13    19    20   ar
    14    14    12    1
    15    12    13    1
    16    12    10   am
    17    11    10    2
    18    10     8    1
    19     8     9   ar
    20     8     5   ar
    21     9     7   ar
    22     5     1   ar
    23     7     1   ar
    24     7     6   ar
    25     1     3   ar
    26    27    28    1
    27    27     6    1
    28     6     4   ar
    29     3     2   ar
    30     4     2   ar
@<TRIPOS>MOLECULE
/Users/evelyn/Desktop/new_docking/c8_charged_docking_1t64.pdbqt
 28 30 0 0 0
SMALL
GASTEIGER

@<TRIPOS>ATOM
      1  C         60.5710   76.5430   10.8420 C.ar    0  UNK0        0.0270
      2  C         62.7980   76.1710    9.9830 C.ar    0  UNK0        0.0020
      3  C         61.8860   77.0020   10.6490 C.ar    0  UNK0        0.0020
      4  C         62.4150   74.9100    9.5150 C.ar    0  UNK0        0.0260
      5  C         59.3930   77.0580   11.4440 C.ar    0  UNK0        0.0320
      6  C         61.1130   74.4340    9.6950 C.ar    0  UNK0        0.1170
      7  C         60.2300   75.2830   10.3610 C.ar    0  UNK0        0.1220
      8  C         58.4250   76.0910   11.2920 C.ar    0  UNK0        0.1550
      9  O         58.9230   75.0110   10.6370 O.2     0  UNK0       -0.3000
     10  C         57.0620   76.0550   11.6950 C.2     0  UNK0        0.2770
     11  O         56.6810   75.9510   12.8910 O.2     0  UNK0       -0.2650
     12  N         56.0800   76.1100   10.6790 N.am    0  UNK0       -0.3360
     13  H         56.3880   76.1720    9.7120 H       0  UNK0        0.1640
     14  C         54.6580   76.0540   10.9290 C.3     0  UNK0        0.1270
     15  C         53.9230   77.2010   10.2930 C.ar    0  UNK0       -0.0000
     16  C         52.6040   77.0340    9.8680 C.ar    0  UNK0       -0.0020
     17  C         51.9230   78.0970    9.2760 C.ar    0  UNK0        0.0130
     18  C         52.5590   79.3270    9.1090 C.ar    0  UNK0        0.1030
     19  C         53.8780   79.4940    9.5340 C.ar    0  UNK0        0.0130
     20  C         54.5590   78.4310   10.1260 C.ar    0  UNK0       -0.0020
     21  S         51.7050   80.6580    8.3690 S.O2    0  UNK0        0.2580
     22  O         51.2200   80.2260    7.0670 O.2     0  UNK0       -0.2010
     23  O         50.7730   81.2070    9.3420 O.2     0  UNK0       -0.2010
     24  N         52.9790   81.7740    8.1400 N.3     0  UNK0       -0.3240
     25  H         53.2190   82.3910    8.9250 H       0  UNK0        0.1690
     26  H         53.0610   82.2220    7.2190 H       0  UNK0        0.1690
     27  O         60.7440   73.2050    9.2370 O.3     0  UNK0       -0.3260
     28  C         61.5860   72.5980    8.2600 C.3     0  UNK0        0.1810
@<TRIPOS>BOND
     1    22    21    2
     2    26    24    1
     3    24    21    1
     4    24    25    1
     5    28    27    1
     6    21    18    1
     7    21    23    2
     8    18    17   ar
     9    18    19   ar
    10    27     6    1
    11    17    16   ar
    12     4     6   ar
    13     4     2   ar
    14    19    20   ar
    15     6     7   ar
    16    13    12    1
    17    16    15   ar
    18     2     3   ar
    19    20    15   ar
    20    15    14    1
    21     7     9   ar
    22     7     1   ar
    23     9     8   ar
    24     3     1   ar
    25    12    14    1
    26    12    10   am
    27     1     5   ar
    28     8     5   ar
    29     8    10    1
    30    10    11    2
@<TRIPOS>MOLECULE
/Users/evelyn/Desktop/new_docking/c8_charged_docking_1t64.pdbqt
 28 30 0 0 0
SMALL
GASTEIGER

@<TRIPOS>ATOM
      1  C         77.0810   74.7130  -12.0630 C.ar    0  UNK0        0.0270
      2  C         77.2960   74.0760  -14.3820 C.ar    0  UNK0        0.0020
      3  C         77.1210   75.0790  -13.4200 C.ar    0  UNK0        0.0020
      4  C         77.4280   72.7350  -14.0100 C.ar    0  UNK0        0.0260
      5  C         76.9270   75.3980  -10.8290 C.ar    0  UNK0        0.0320
      6  C         77.3900   72.3480  -12.6670 C.ar    0  UNK0        0.1170
      7  C         77.2160   73.3680  -11.7340 C.ar    0  UNK0        0.1220
      8  C         76.9770   74.4400   -9.8430 C.ar    0  UNK0        0.1550
      9  O         77.1520   73.2060  -10.3820 O.2     0  UNK0       -0.3000
     10  C         76.8780   74.5410   -8.4280 C.2     0  UNK0        0.2770
     11  O         76.5330   73.5940   -7.6750 O.2     0  UNK0       -0.2650
     12  N         77.1590   75.7980   -7.8430 N.am    0  UNK0       -0.3360
     13  H         77.4160   76.5690   -8.4530 H       0  UNK0        0.1640
     14  C         77.0740   76.0630   -6.4260 C.3     0  UNK0        0.1270
     15  C         78.4290   76.1620   -5.7830 C.ar    0  UNK0       -0.0000
     16  C         78.7610   77.2840   -5.0220 C.ar    0  UNK0       -0.0020
     17  C         80.0190   77.3760   -4.4270 C.ar    0  UNK0        0.0130
     18  C         80.9460   76.3480   -4.5930 C.ar    0  UNK0        0.1030
     19  C         80.6150   75.2260   -5.3540 C.ar    0  UNK0        0.0130
     20  C         79.3570   75.1330   -5.9490 C.ar    0  UNK0       -0.0020
     21  S         82.5200   76.4630   -3.8470 S.O2    0  UNK0        0.2580
     22  O         83.5310   76.2430   -4.8720 O.2     0  UNK0       -0.2010
     23  O         82.5610   77.6720   -3.0380 O.2     0  UNK0       -0.2010
     24  N         82.4880   75.1070   -2.8070 N.3     0  UNK0       -0.3240
     25  H         81.6690   74.9950   -2.1960 H       0  UNK0        0.1690
     26  H         83.3730   74.8160   -2.3740 H       0  UNK0        0.1690
     27  O         77.5190   71.0390  -12.3080 O.3     0  UNK0       -0.3260
     28  C         78.8430   70.5430  -12.1290 C.3     0  UNK0        0.1810
@<TRIPOS>BOND
     1     2     4   ar
     2     2     3   ar
     3     4     6   ar
     4     3     1   ar
     5     6    27    1
     6     6     7   ar
     7    27    28    1
     8     1     7   ar
     9     1     5   ar
    10     7     9   ar
    11     5     8   ar
    12     9     8   ar
    13     8    10    1
    14    13    12    1
    15    10    12   am
    16    10    11    2
    17    12    14    1
    18    14    15    1
    19    20    15   ar
    20    20    19   ar
    21    15    16   ar
    22    19    18   ar
    23    16    17   ar
    24    22    21    2
    25    18    17   ar
    26    18    21    1
    27    21    23    2
    28    21    24    1
    29    24    26    1
    30    24    25    1
@<TRIPOS>MOLECULE
/Users/evelyn/Desktop/new_docking/c8_charged_docking_1t64.pdbqt
 28 30 0 0 0
SMALL
GASTEIGER

@<TRIPOS>ATOM
      1  C         57.6280   52.2870  -12.2290 C.ar    0  UNK0        0.0270
      2  C         55.4230   53.1030  -12.7810 C.ar    0  UNK0        0.0020
      3  C         56.7520   52.8730  -13.1600 C.ar    0  UNK0        0.0020
      4  C         54.9680   52.7600  -11.5040 C.ar    0  UNK0        0.0260
      5  C         58.9950   51.9040  -12.2210 C.ar    0  UNK0        0.0320
      6  C         55.8210   52.1770  -10.5620 C.ar    0  UNK0        0.1170
      7  C         57.1370   51.9610  -10.9700 C.ar    0  UNK0        0.1220
      8  C         59.2430   51.3770  -10.9750 C.ar    0  UNK0        0.1550
      9  O         58.1230   51.4070  -10.2080 O.2     0  UNK0       -0.3000
     10  C         60.4280   50.8380  -10.4020 C.2     0  UNK0        0.2770
     11  O         61.3160   51.5270   -9.8360 O.2     0  UNK0       -0.2650
     12  N         60.6250   49.4410  -10.5060 N.am    0  UNK0       -0.3360
     13  H         59.9180   48.8870  -10.9820 H       0  UNK0        0.1640
     14  C         61.7890   48.7530   -9.9990 C.3     0  UNK0        0.1270
     15  C         61.4430   47.4240   -9.3870 C.ar    0  UNK0       -0.0000
     16  C         61.6940   47.1920   -8.0340 C.ar    0  UNK0       -0.0020
     17  C         61.3740   45.9590   -7.4660 C.ar    0  UNK0        0.0130
     18  C         60.8040   44.9570   -8.2510 C.ar    0  UNK0        0.1030
     19  C         60.5530   45.1890   -9.6040 C.ar    0  UNK0        0.0130
     20  C         60.8730   46.4220  -10.1720 C.ar    0  UNK0       -0.0020
     21  S         60.4020   43.4140   -7.5400 S.O2    0  UNK0        0.2580
     22  O         59.1070   42.9940   -8.0550 O.2     0  UNK0       -0.2010
     23  O         61.5520   42.5320   -7.6700 O.2     0  UNK0       -0.2010
     24  N         60.2270   43.8480   -5.8960 N.3     0  UNK0       -0.3240
     25  H         61.0790   44.0760   -5.3700 H       0  UNK0        0.1690
     26  H         59.5170   43.3510   -5.3450 H       0  UNK0        0.1690
     27  O         55.3740   51.8450   -9.3190 O.3     0  UNK0       -0.3260
     28  C         54.2100   51.0270   -9.2460 C.3     0  UNK0        0.1810
@<TRIPOS>BOND
     1     3     2   ar
     2     3     1   ar
     3     2     4   ar
     4     1     5   ar
     5     1     7   ar
     6     5     8   ar
     7     4     6   ar
     8    13    12    1
     9     8    10    1
    10     8     9   ar
    11     7     6   ar
    12     7     9   ar
    13     6    27    1
    14    12    10   am
    15    12    14    1
    16    10    11    2
    17    20    19   ar
    18    20    15   ar
    19    14    15    1
    20    19    18   ar
    21    15    16   ar
    22    27    28    1
    23    18    21    1
    24    18    17   ar
    25    22    21    2
    26    16    17   ar
    27    23    21    2
    28    21    24    1
    29    24    25    1
    30    24    26    1
@<TRIPOS>MOLECULE
/Users/evelyn/Desktop/new_docking/c8_charged_docking_1t64.pdbqt
 28 30 0 0 0
SMALL
GASTEIGER

@<TRIPOS>ATOM
      1  C         47.8440   57.5320   13.3380 C.ar    0  UNK0        0.0270
      2  C         46.3220   56.6480   11.6830 C.ar    0  UNK0        0.0020
      3  C         46.9550   56.5230   12.9280 C.ar    0  UNK0        0.0020
      4  C         46.5650   57.7510   10.8590 C.ar    0  UNK0        0.0260
      5  C         48.6530   57.7710   14.4790 C.ar    0  UNK0        0.0320
      6  C         47.4450   58.7660   11.2470 C.ar    0  UNK0        0.1170
      7  C         48.0570   58.6130   12.4890 C.ar    0  UNK0        0.1220
      8  C         49.2980   58.9660   14.2550 C.ar    0  UNK0        0.1550
      9  O         48.9440   59.4840   13.0500 O.2     0  UNK0       -0.3000
     10  C         50.2260   59.6960   15.0470 C.2     0  UNK0        0.2770
     11  O         50.0420   60.8780   15.4410 O.2     0  UNK0       -0.2650
     12  N         51.4420   59.0570   15.3830 N.am    0  UNK0       -0.3360
     13  H         51.6000   58.1110   15.0460 H       0  UNK0        0.1640
     14  C         52.4920   59.6790   16.1550 C.3     0  UNK0        0.1270
     15  C         52.7610   58.9500   17.4410 C.ar    0  UNK0       -0.0000
     16  C         54.0750   58.6900   17.8340 C.ar    0  UNK0       -0.0020
     17  C         54.3250   58.0120   19.0270 C.ar    0  UNK0        0.0130
     18  C         53.2630   57.5930   19.8270 C.ar    0  UNK0        0.1030
     19  C         51.9490   57.8530   19.4340 C.ar    0  UNK0        0.0130
     20  C         51.6990   58.5310   18.2410 C.ar    0  UNK0       -0.0020
     21  S         53.5750   56.7450   21.3210 S.O2    0  UNK0        0.2580
     22  O         54.7760   55.9400   21.1490 O.2     0  UNK0       -0.2010
     23  O         53.4940   57.6960   22.4180 O.2     0  UNK0       -0.2010
     24  N         52.2210   55.7050   21.3940 N.3     0  UNK0       -0.3240
     25  H         51.6700   55.5790   20.5370 H       0  UNK0        0.1690
     26  H         51.6590   55.7140   22.2540 H       0  UNK0        0.1690
     27  O         47.6790   59.8400   10.4410 O.3     0  UNK0       -0.3260
     28  C         46.7810   60.9410   10.5510 C.3     0  UNK0        0.1810
@<TRIPOS>BOND
     1    27    28    1
     2    27     6    1
     3     4     6   ar
     4     4     2   ar
     5     6     7   ar
     6     2     3   ar
     7     7     9   ar
     8     7     1   ar
     9     3     1   ar
    10     9     8   ar
    11     1     5   ar
    12     8     5   ar
    13     8    10    1
    14    13    12    1
    15    10    12   am
    16    10    11    2
    17    12    14    1
    18    14    15    1
    19    15    16   ar
    20    15    20   ar
    21    16    17   ar
    22    20    19   ar
    23    17    18   ar
    24    19    18   ar
    25    18    21    1
    26    25    24    1
    27    22    21    2
    28    21    24    1
    29    21    23    2
    30    24    26    1
@<TRIPOS>MOLECULE
/Users/evelyn/Desktop/new_docking/c8_charged_docking_1t64.pdbqt
 28 30 0 0 0
SMALL
GASTEIGER

@<TRIPOS>ATOM
      1  C         47.0220   57.6210   12.5230 C.ar    0  UNK0        0.0270
      2  C         45.5100   58.1480   10.7150 C.ar    0  UNK0        0.0020
      3  C         45.9580   57.2420   11.6860 C.ar    0  UNK0        0.0020
      4  C         46.1040   59.4060   10.5740 C.ar    0  UNK0        0.0260
      5  C         47.7420   57.0180   13.5880 C.ar    0  UNK0        0.0320
      6  C         47.1640   59.8030   11.3950 C.ar    0  UNK0        0.1170
      7  C         47.5860   58.8810   12.3500 C.ar    0  UNK0        0.1220
      8  C         48.6850   57.9370   13.9880 C.ar    0  UNK0        0.1550
      9  O         48.5980   59.0700   13.2440 O.2     0  UNK0       -0.3000
     10  C         49.6780   57.8830   15.0050 C.2     0  UNK0        0.2770
     11  O         50.5050   56.9430   15.1340 O.2     0  UNK0       -0.2650
     12  N         49.7090   58.9410   15.9430 N.am    0  UNK0       -0.3360
     13  H         49.0260   59.6880   15.8520 H       0  UNK0        0.1640
     14  C         50.6390   59.0110   17.0460 C.3     0  UNK0        0.1270
     15  C         51.5130   60.2310   16.9770 C.ar    0  UNK0       -0.0000
     16  C         50.9580   61.4990   17.1580 C.ar    0  UNK0       -0.0020
     17  C         51.7680   62.6320   17.0930 C.ar    0  UNK0        0.0130
     18  C         53.1350   62.4980   16.8460 C.ar    0  UNK0        0.1030
     19  C         53.6900   61.2310   16.6640 C.ar    0  UNK0        0.0130
     20  C         52.8790   60.0980   16.7300 C.ar    0  UNK0       -0.0020
     21  S         54.1500   63.9160   16.7650 S.O2    0  UNK0        0.2580
     22  O         53.6940   64.7450   15.6580 O.2     0  UNK0       -0.2010
     23  O         54.2560   64.4860   18.1000 O.2     0  UNK0       -0.2010
     24  N         55.6520   63.2170   16.3460 N.3     0  UNK0       -0.3240
     25  H         55.8120   62.2370   16.6100 H       0  UNK0        0.1690
     26  H         56.4890   63.8090   16.4130 H       0  UNK0        0.1690
     27  O         47.7410   61.0300   11.2540 O.3     0  UNK0       -0.3260
     28  C         47.2010   62.0940   12.0330 C.3     0  UNK0        0.1810
@<TRIPOS>BOND
     1     4     2   ar
     2     4     6   ar
     3     2     3   ar
     4    27     6    1
     5    27    28    1
     6     6     7   ar
     7     3     1   ar
     8     7     1   ar
     9     7     9   ar
    10     1     5   ar
    11     9     8   ar
    12     5     8   ar
    13     8    10    1
    14    10    11    2
    15    10    12   am
    16    22    21    2
    17    13    12    1
    18    12    14    1
    19    24    26    1
    20    24    25    1
    21    24    21    1
    22    19    20   ar
    23    19    18   ar
    24    20    15   ar
    25    21    18    1
    26    21    23    2
    27    18    17   ar
    28    15    14    1
    29    15    16   ar
    30    17    16   ar
