REMARK  6 active torsions:
REMARK  status: ('A' for Active; 'I' for Inactive)
REMARK    1  A    between atoms: C_8  and  C_15 
REMARK    2  A    between atoms: S_22  and  C_11 
REMARK    3  A    between atoms: C_12  and  O_28 
REMARK    4  A    between atoms: C_24  and  C_14 
REMARK    5  A    between atoms: C_15  and  N_27 
REMARK    6  A    between atoms: S_22  and  N_26 
REMARK       I    between atoms: N_27  and  C_24 
ROOT
ATOM      1  C   UNK d   0       3.898   0.831   1.049  0.00  0.00     0.027 A 
ATOM      2  C   UNK d   0       5.935  -0.379   1.518  0.00  0.00     0.002 A 
ATOM      3  C   UNK d   0       5.088   0.705   1.787  0.00  0.00     0.002 A 
ATOM      4  C   UNK d   0       5.611  -1.321   0.537  0.00  0.00     0.026 A 
ATOM      5  C   UNK d   0       2.814   1.747   1.017  0.00  0.00     0.032 A 
ATOM      6  C   UNK d   0       4.433  -1.215  -0.209  0.00  0.00     0.117 A 
ATOM      7  C   UNK d   0       3.612  -0.127   0.082  0.00  0.00     0.122 A 
ATOM      8  C   UNK d   0       1.951   1.294   0.046  0.00  0.00     0.155 A 
ATOM      9  O   UNK d   0       2.426   0.158  -0.527  0.00  0.00    -0.300 OA
ENDROOT
BRANCH   8  10
ATOM     10  C   UNK d   0       0.709   1.806  -0.421  0.00  0.00     0.277 C 
ATOM     11  O   UNK d   0       0.149   2.833   0.044  0.00  0.00    -0.265 OA
ATOM     12  N   UNK d   0       0.056   1.092  -1.452  0.00  0.00    -0.336 N 
ATOM     13  H   UNK d   0       0.497   0.250  -1.812  0.00  0.00     0.164 HD
BRANCH  12  14
ATOM     14  C   UNK d   0      -1.222   1.471  -2.009  0.00  0.00     0.127 C 
BRANCH  14  15
ATOM     15  C   UNK d   0      -2.372   0.838  -1.277  0.00  0.00    -0.000 A 
ATOM     16  C   UNK d   0      -2.862  -0.403  -1.687  0.00  0.00    -0.002 A 
ATOM     17  C   UNK d   0      -3.930  -0.990  -1.009  0.00  0.00     0.013 A 
ATOM     18  C   UNK d   0      -4.509  -0.337   0.079  0.00  0.00     0.103 A 
ATOM     19  C   UNK d   0      -4.019   0.904   0.489  0.00  0.00     0.013 A 
ATOM     20  C   UNK d   0      -2.951   1.491  -0.189  0.00  0.00    -0.002 A 
BRANCH  18  21
ATOM     21  S   UNK d   0      -5.845  -1.072   0.929  0.00  0.00     0.258 S 
ATOM     22  O   UNK d   0      -6.607  -0.019   1.585  0.00  0.00    -0.201 OA
ATOM     23  O   UNK d   0      -6.516  -1.995   0.026  0.00  0.00    -0.201 OA
BRANCH  21  24
ATOM     24  N   UNK d   0      -5.016  -1.975   2.120  0.00  0.00    -0.324 N 
ATOM     25  H   UNK d   0      -5.010  -2.998   2.024  0.00  0.00     0.169 HD
ATOM     26  H   UNK d   0      -5.073  -1.648   3.092  0.00  0.00     0.169 HD
ENDBRANCH  21  24
ENDBRANCH  18  21
ENDBRANCH  14  15
ENDBRANCH  12  14
ENDBRANCH   8  10
BRANCH   6  27
ATOM     27  O   UNK d   0       4.121  -2.135  -1.165  0.00  0.00    -0.326 OA
ATOM     28  C   UNK d   0       5.046  -3.201  -1.365  0.00  0.00     0.181 C 
ENDBRANCH   6  27
TORSDOF 6
