MODEL 1
REMARK VINA RESULT:      -7.8      0.000      0.000
REMARK  6 active torsions:
REMARK  status: ('A' for Active; 'I' for Inactive)
REMARK    1  A    between atoms: C_8  and  C_15 
REMARK    2  A    between atoms: S_22  and  C_11 
REMARK    3  A    between atoms: C_12  and  O_28 
REMARK    4  A    between atoms: C_24  and  C_14 
REMARK    5  A    between atoms: C_15  and  N_27 
REMARK    6  A    between atoms: S_22  and  N_26 
REMARK       I    between atoms: N_27  and  C_24 
ROOT
ATOM      1  C   UNK d   0      40.616   3.457 -37.071  0.00  0.00     0.027 A 
ATOM      2  C   UNK d   0      42.506   3.579 -35.572  0.00  0.00     0.002 A 
ATOM      3  C   UNK d   0      41.538   4.233 -36.347  0.00  0.00     0.002 A 
ATOM      4  C   UNK d   0      42.561   2.183 -35.515  0.00  0.00     0.026 A 
ATOM      5  C   UNK d   0      39.524   3.723 -37.939  0.00  0.00     0.032 A 
ATOM      6  C   UNK d   0      41.655   1.392 -36.227  0.00  0.00     0.117 A 
ATOM      7  C   UNK d   0      40.704   2.072 -36.987  0.00  0.00     0.122 A 
ATOM      8  C   UNK d   0      39.027   2.499 -38.323  0.00  0.00     0.155 A 
ATOM      9  O   UNK d   0      39.736   1.491 -37.751  0.00  0.00    -0.300 OA
ENDROOT
BRANCH   8  10
ATOM     10  C   UNK d   0      37.945   2.150 -39.178  0.00  0.00     0.277 C 
ATOM     11  O   UNK d   0      37.947   1.155 -39.949  0.00  0.00    -0.265 OA
ATOM     12  N   UNK d   0      36.814   2.998 -39.178  0.00  0.00    -0.336 N 
ATOM     13  H   UNK d   0      36.822   3.815 -38.572  0.00  0.00     0.164 HD
BRANCH  12  14
ATOM     14  C   UNK d   0      35.652   2.792 -40.011  0.00  0.00     0.127 C 
BRANCH  14  15
ATOM     15  C   UNK d   0      35.749   3.532 -41.316  0.00  0.00    -0.000 A 
ATOM     16  C   UNK d   0      36.710   4.530 -41.482  0.00  0.00    -0.002 A 
ATOM     17  C   UNK d   0      36.799   5.218 -42.692  0.00  0.00     0.013 A 
ATOM     18  C   UNK d   0      35.928   4.909 -43.736  0.00  0.00     0.103 A 
ATOM     19  C   UNK d   0      34.967   3.911 -43.570  0.00  0.00     0.013 A 
ATOM     20  C   UNK d   0      34.878   3.223 -42.360  0.00  0.00    -0.002 A 
BRANCH  18  21
ATOM     21  S   UNK d   0      36.040   5.769 -45.251  0.00  0.00     0.258 S 
ATOM     22  O   UNK d   0      36.631   4.880 -46.241  0.00  0.00    -0.201 OA
ATOM     23  O   UNK d   0      34.757   6.401 -45.520  0.00  0.00    -0.201 OA
BRANCH  21  24
ATOM     24  N   UNK d   0      37.176   6.983 -44.853  0.00  0.00    -0.324 N 
ATOM     25  H   UNK d   0      36.818   7.855 -44.444  0.00  0.00     0.169 HD
ATOM     26  H   UNK d   0      37.973   7.116 -45.487  0.00  0.00     0.169 HD
ENDBRANCH  21  24
ENDBRANCH  18  21
ENDBRANCH  14  15
ENDBRANCH  12  14
ENDBRANCH   8  10
BRANCH   6  27
ATOM     27  O   UNK d   0      41.712   0.032 -36.170  0.00  0.00    -0.326 OA
ATOM     28  C   UNK d   0      42.987  -0.573 -36.378  0.00  0.00     0.181 C 
ENDBRANCH   6  27
TORSDOF 6
ENDMDL
MODEL 2
REMARK VINA RESULT:      -7.6      3.393      4.406
REMARK  6 active torsions:
REMARK  status: ('A' for Active; 'I' for Inactive)
REMARK    1  A    between atoms: C_8  and  C_15 
REMARK    2  A    between atoms: S_22  and  C_11 
REMARK    3  A    between atoms: C_12  and  O_28 
REMARK    4  A    between atoms: C_24  and  C_14 
REMARK    5  A    between atoms: C_15  and  N_27 
REMARK    6  A    between atoms: S_22  and  N_26 
REMARK       I    between atoms: N_27  and  C_24 
ROOT
ATOM      1  C   UNK d   0      40.722   3.414 -37.145  0.00  0.00     0.027 A 
ATOM      2  C   UNK d   0      42.479   3.406 -35.488  0.00  0.00     0.002 A 
ATOM      3  C   UNK d   0      41.591   4.126 -36.300  0.00  0.00     0.002 A 
ATOM      4  C   UNK d   0      42.506   2.008 -35.512  0.00  0.00     0.026 A 
ATOM      5  C   UNK d   0      39.713   3.755 -38.084  0.00  0.00     0.032 A 
ATOM      6  C   UNK d   0      41.650   1.281 -36.345  0.00  0.00     0.117 A 
ATOM      7  C   UNK d   0      40.780   2.025 -37.139  0.00  0.00     0.122 A 
ATOM      8  C   UNK d   0      39.230   2.567 -38.583  0.00  0.00     0.155 A 
ATOM      9  O   UNK d   0      39.870   1.512 -38.016  0.00  0.00    -0.300 OA
ENDROOT
BRANCH   8  10
ATOM     10  C   UNK d   0      38.219   2.293 -39.546  0.00  0.00     0.277 C 
ATOM     11  O   UNK d   0      38.017   1.160 -40.054  0.00  0.00    -0.265 OA
ATOM     12  N   UNK d   0      37.418   3.376 -39.975  0.00  0.00    -0.336 N 
ATOM     13  H   UNK d   0      37.596   4.296 -39.581  0.00  0.00     0.164 HD
BRANCH  12  14
ATOM     14  C   UNK d   0      36.373   3.261 -40.966  0.00  0.00     0.127 C 
BRANCH  14  15
ATOM     15  C   UNK d   0      35.006   3.182 -40.346  0.00  0.00    -0.000 A 
ATOM     16  C   UNK d   0      34.871   3.147 -38.957  0.00  0.00    -0.002 A 
ATOM     17  C   UNK d   0      33.603   3.072 -38.381  0.00  0.00     0.013 A 
ATOM     18  C   UNK d   0      32.470   3.032 -39.193  0.00  0.00     0.103 A 
ATOM     19  C   UNK d   0      32.605   3.067 -40.582  0.00  0.00     0.013 A 
ATOM     20  C   UNK d   0      33.873   3.142 -41.158  0.00  0.00    -0.002 A 
BRANCH  18  21
ATOM     21  S   UNK d   0      30.882   2.941 -38.473  0.00  0.00     0.258 S 
ATOM     22  O   UNK d   0      31.039   2.772 -37.035  0.00  0.00    -0.201 OA
ATOM     23  O   UNK d   0      30.076   4.037 -38.988  0.00  0.00    -0.201 OA
BRANCH  21  24
ATOM     24  N   UNK d   0      30.306   1.476 -39.139  0.00  0.00    -0.324 N 
ATOM     25  H   UNK d   0      30.454   0.615 -38.597  0.00  0.00     0.169 HD
ATOM     26  H   UNK d   0      30.390   1.348 -40.155  0.00  0.00     0.169 HD
ENDBRANCH  21  24
ENDBRANCH  18  21
ENDBRANCH  14  15
ENDBRANCH  12  14
ENDBRANCH   8  10
BRANCH   6  27
ATOM     27  O   UNK d   0      41.680  -0.082 -36.366  0.00  0.00    -0.326 OA
ATOM     28  C   UNK d   0      42.950  -0.705 -36.194  0.00  0.00     0.181 C 
ENDBRANCH   6  27
TORSDOF 6
ENDMDL
MODEL 3
REMARK VINA RESULT:      -6.7     19.878     22.752
REMARK  6 active torsions:
REMARK  status: ('A' for Active; 'I' for Inactive)
REMARK    1  A    between atoms: C_8  and  C_15 
REMARK    2  A    between atoms: S_22  and  C_11 
REMARK    3  A    between atoms: C_12  and  O_28 
REMARK    4  A    between atoms: C_24  and  C_14 
REMARK    5  A    between atoms: C_15  and  N_27 
REMARK    6  A    between atoms: S_22  and  N_26 
REMARK       I    between atoms: N_27  and  C_24 
ROOT
ATOM      1  C   UNK d   0      26.617  -8.318 -24.205  0.00  0.00     0.027 A 
ATOM      2  C   UNK d   0      24.745  -9.844 -24.196  0.00  0.00     0.002 A 
ATOM      3  C   UNK d   0      25.624  -9.011 -23.491  0.00  0.00     0.002 A 
ATOM      4  C   UNK d   0      24.846  -9.989 -25.583  0.00  0.00     0.026 A 
ATOM      5  C   UNK d   0      27.661  -7.414 -23.877  0.00  0.00     0.032 A 
ATOM      6  C   UNK d   0      25.826  -9.310 -26.314  0.00  0.00     0.117 A 
ATOM      7  C   UNK d   0      26.685  -8.490 -25.584  0.00  0.00     0.122 A 
ATOM      8  C   UNK d   0      28.288  -7.098 -25.061  0.00  0.00     0.155 A 
ATOM      9  O   UNK d   0      27.703  -7.746 -26.101  0.00  0.00    -0.300 OA
ENDROOT
BRANCH   8  10
ATOM     10  C   UNK d   0      29.391  -6.246 -25.342  0.00  0.00     0.277 C 
ATOM     11  O   UNK d   0      29.589  -5.691 -26.454  0.00  0.00    -0.265 OA
ATOM     12  N   UNK d   0      30.335  -6.039 -24.310  0.00  0.00    -0.336 N 
ATOM     13  H   UNK d   0      30.187  -6.506 -23.419  0.00  0.00     0.164 HD
BRANCH  12  14
ATOM     14  C   UNK d   0      31.520  -5.225 -24.453  0.00  0.00     0.127 C 
BRANCH  14  15
ATOM     15  C   UNK d   0      32.463  -5.384 -23.294  0.00  0.00    -0.000 A 
ATOM     16  C   UNK d   0      33.715  -4.768 -23.324  0.00  0.00    -0.002 A 
ATOM     17  C   UNK d   0      34.592  -4.916 -22.249  0.00  0.00     0.013 A 
ATOM     18  C   UNK d   0      34.218  -5.681 -21.145  0.00  0.00     0.103 A 
ATOM     19  C   UNK d   0      32.966  -6.298 -21.115  0.00  0.00     0.013 A 
ATOM     20  C   UNK d   0      32.089  -6.150 -22.190  0.00  0.00    -0.002 A 
BRANCH  18  21
ATOM     21  S   UNK d   0      35.314  -5.867 -19.799  0.00  0.00     0.258 S 
ATOM     22  O   UNK d   0      35.035  -4.815 -18.831  0.00  0.00    -0.201 OA
ATOM     23  O   UNK d   0      35.298  -7.260 -19.378  0.00  0.00    -0.201 OA
BRANCH  21  24
ATOM     24  N   UNK d   0      36.813  -5.538 -20.552  0.00  0.00    -0.324 N 
ATOM     25  H   UNK d   0      37.400  -4.801 -20.142  0.00  0.00     0.169 HD
ATOM     26  H   UNK d   0      36.850  -5.579 -21.577  0.00  0.00     0.169 HD
ENDBRANCH  21  24
ENDBRANCH  18  21
ENDBRANCH  14  15
ENDBRANCH  12  14
ENDBRANCH   8  10
BRANCH   6  27
ATOM     27  O   UNK d   0      25.922  -9.455 -27.665  0.00  0.00    -0.326 OA
ATOM     28  C   UNK d   0      24.704  -9.614 -28.388  0.00  0.00     0.181 C 
ENDBRANCH   6  27
TORSDOF 6
ENDMDL
MODEL 4
REMARK VINA RESULT:      -6.7      1.262      2.531
REMARK  6 active torsions:
REMARK  status: ('A' for Active; 'I' for Inactive)
REMARK    1  A    between atoms: C_8  and  C_15 
REMARK    2  A    between atoms: S_22  and  C_11 
REMARK    3  A    between atoms: C_12  and  O_28 
REMARK    4  A    between atoms: C_24  and  C_14 
REMARK    5  A    between atoms: C_15  and  N_27 
REMARK    6  A    between atoms: S_22  and  N_26 
REMARK       I    between atoms: N_27  and  C_24 
ROOT
ATOM      1  C   UNK d   0      40.894   2.360 -36.862  0.00  0.00     0.027 A 
ATOM      2  C   UNK d   0      42.621   3.348 -35.493  0.00  0.00     0.002 A 
ATOM      3  C   UNK d   0      42.001   2.202 -36.009  0.00  0.00     0.002 A 
ATOM      4  C   UNK d   0      42.156   4.626 -35.814  0.00  0.00     0.026 A 
ATOM      5  C   UNK d   0      40.021   1.490 -37.566  0.00  0.00     0.032 A 
ATOM      6  C   UNK d   0      41.057   4.807 -36.659  0.00  0.00     0.117 A 
ATOM      7  C   UNK d   0      40.462   3.649 -37.157  0.00  0.00     0.122 A 
ATOM      8  C   UNK d   0      39.126   2.294 -38.234  0.00  0.00     0.155 A 
ATOM      9  O   UNK d   0      39.385   3.605 -37.992  0.00  0.00    -0.300 OA
ENDROOT
BRANCH   8  10
ATOM     10  C   UNK d   0      38.035   1.978 -39.089  0.00  0.00     0.277 C 
ATOM     11  O   UNK d   0      38.015   0.995 -39.876  0.00  0.00    -0.265 OA
ATOM     12  N   UNK d   0      36.918   2.845 -39.069  0.00  0.00    -0.336 N 
ATOM     13  H   UNK d   0      36.943   3.652 -38.450  0.00  0.00     0.164 HD
BRANCH  12  14
ATOM     14  C   UNK d   0      35.749   2.672 -39.900  0.00  0.00     0.127 C 
BRANCH  14  15
ATOM     15  C   UNK d   0      35.835   3.464 -41.174  0.00  0.00    -0.000 A 
ATOM     16  C   UNK d   0      34.852   3.317 -42.154  0.00  0.00    -0.002 A 
ATOM     17  C   UNK d   0      34.931   4.050 -43.338  0.00  0.00     0.013 A 
ATOM     18  C   UNK d   0      35.994   4.931 -43.543  0.00  0.00     0.103 A 
ATOM     19  C   UNK d   0      36.977   5.077 -42.563  0.00  0.00     0.013 A 
ATOM     20  C   UNK d   0      36.897   4.344 -41.379  0.00  0.00    -0.002 A 
BRANCH  18  21
ATOM     21  S   UNK d   0      36.093   5.850 -45.024  0.00  0.00     0.258 S 
ATOM     22  O   UNK d   0      36.637   4.988 -46.064  0.00  0.00    -0.201 OA
ATOM     23  O   UNK d   0      34.822   6.525 -45.235  0.00  0.00    -0.201 OA
BRANCH  21  24
ATOM     24  N   UNK d   0      37.270   7.016 -44.605  0.00  0.00    -0.324 N 
ATOM     25  H   UNK d   0      37.971   6.754 -43.900  0.00  0.00     0.169 HD
ATOM     26  H   UNK d   0      36.972   7.997 -44.551  0.00  0.00     0.169 HD
ENDBRANCH  21  24
ENDBRANCH  18  21
ENDBRANCH  14  15
ENDBRANCH  12  14
ENDBRANCH   8  10
BRANCH   6  27
ATOM     27  O   UNK d   0      40.605   6.055 -36.969  0.00  0.00    -0.326 OA
ATOM     28  C   UNK d   0      41.581   7.088 -37.081  0.00  0.00     0.181 C 
ENDBRANCH   6  27
TORSDOF 6
ENDMDL
MODEL 5
REMARK VINA RESULT:      -6.6     20.126     22.902
REMARK  6 active torsions:
REMARK  status: ('A' for Active; 'I' for Inactive)
REMARK    1  A    between atoms: C_8  and  C_15 
REMARK    2  A    between atoms: S_22  and  C_11 
REMARK    3  A    between atoms: C_12  and  O_28 
REMARK    4  A    between atoms: C_24  and  C_14 
REMARK    5  A    between atoms: C_15  and  N_27 
REMARK    6  A    between atoms: S_22  and  N_26 
REMARK       I    between atoms: N_27  and  C_24 
ROOT
ATOM      1  C   UNK d   0      26.573  -8.475 -25.940  0.00  0.00     0.027 A 
ATOM      2  C   UNK d   0      24.805 -10.006 -25.336  0.00  0.00     0.002 A 
ATOM      3  C   UNK d   0      25.574  -9.384 -26.330  0.00  0.00     0.002 A 
ATOM      4  C   UNK d   0      25.021  -9.733 -23.982  0.00  0.00     0.026 A 
ATOM      5  C   UNK d   0      27.530  -7.668 -26.610  0.00  0.00     0.032 A 
ATOM      6  C   UNK d   0      26.008  -8.832 -23.572  0.00  0.00     0.117 A 
ATOM      7  C   UNK d   0      26.756  -8.231 -24.583  0.00  0.00     0.122 A 
ATOM      8  C   UNK d   0      28.222  -6.993 -25.631  0.00  0.00     0.155 A 
ATOM      9  O   UNK d   0      27.761  -7.328 -24.398  0.00  0.00    -0.300 OA
ENDROOT
BRANCH   8  10
ATOM     10  C   UNK d   0      29.287  -6.054 -25.710  0.00  0.00     0.277 C 
ATOM     11  O   UNK d   0      29.461  -5.264 -26.675  0.00  0.00    -0.265 OA
ATOM     12  N   UNK d   0      30.220  -6.034 -24.648  0.00  0.00    -0.336 N 
ATOM     13  H   UNK d   0      30.092  -6.687 -23.879  0.00  0.00     0.164 HD
BRANCH  12  14
ATOM     14  C   UNK d   0      31.368  -5.158 -24.600  0.00  0.00     0.127 C 
BRANCH  14  15
ATOM     15  C   UNK d   0      32.242  -5.430 -23.408  0.00  0.00    -0.000 A 
ATOM     16  C   UNK d   0      33.536  -4.908 -23.358  0.00  0.00    -0.002 A 
ATOM     17  C   UNK d   0      34.348  -5.162 -22.253  0.00  0.00     0.013 A 
ATOM     18  C   UNK d   0      33.869  -5.938 -21.199  0.00  0.00     0.103 A 
ATOM     19  C   UNK d   0      32.575  -6.461 -21.249  0.00  0.00     0.013 A 
ATOM     20  C   UNK d   0      31.763  -6.207 -22.354  0.00  0.00    -0.002 A 
BRANCH  18  21
ATOM     21  S   UNK d   0      34.885  -6.255 -19.815  0.00  0.00     0.258 S 
ATOM     22  O   UNK d   0      34.443  -5.406 -18.717  0.00  0.00    -0.201 OA
ATOM     23  O   UNK d   0      34.972  -7.695 -19.625  0.00  0.00    -0.201 OA
BRANCH  21  24
ATOM     24  N   UNK d   0      36.393  -5.683 -20.380  0.00  0.00    -0.324 N 
ATOM     25  H   UNK d   0      36.969  -5.136 -19.730  0.00  0.00     0.169 HD
ATOM     26  H   UNK d   0      36.446  -5.363 -21.355  0.00  0.00     0.169 HD
ENDBRANCH  21  24
ENDBRANCH  18  21
ENDBRANCH  14  15
ENDBRANCH  12  14
ENDBRANCH   8  10
BRANCH   6  27
ATOM     27  O   UNK d   0      26.215  -8.568 -22.251  0.00  0.00    -0.326 OA
ATOM     28  C   UNK d   0      25.495  -9.362 -21.311  0.00  0.00     0.181 C 
ENDBRANCH   6  27
TORSDOF 6
ENDMDL
MODEL 6
REMARK VINA RESULT:      -6.4      3.722      4.888
REMARK  6 active torsions:
REMARK  status: ('A' for Active; 'I' for Inactive)
REMARK    1  A    between atoms: C_8  and  C_15 
REMARK    2  A    between atoms: S_22  and  C_11 
REMARK    3  A    between atoms: C_12  and  O_28 
REMARK    4  A    between atoms: C_24  and  C_14 
REMARK    5  A    between atoms: C_15  and  N_27 
REMARK    6  A    between atoms: S_22  and  N_26 
REMARK       I    between atoms: N_27  and  C_24 
ROOT
ATOM      1  C   UNK d   0      40.127   2.507 -37.960  0.00  0.00     0.027 A 
ATOM      2  C   UNK d   0      41.626   2.244 -36.084  0.00  0.00     0.002 A 
ATOM      3  C   UNK d   0      40.795   1.665 -37.054  0.00  0.00     0.002 A 
ATOM      4  C   UNK d   0      41.792   3.630 -36.011  0.00  0.00     0.026 A 
ATOM      5  C   UNK d   0      39.233   2.325 -39.047  0.00  0.00     0.032 A 
ATOM      6  C   UNK d   0      41.137   4.486 -36.902  0.00  0.00     0.117 A 
ATOM      7  C   UNK d   0      40.319   3.881 -37.854  0.00  0.00     0.122 A 
ATOM      8  C   UNK d   0      38.942   3.581 -39.526  0.00  0.00     0.155 A 
ATOM      9  O   UNK d   0      39.596   4.532 -38.809  0.00  0.00    -0.300 OA
ENDROOT
BRANCH   8  10
ATOM     10  C   UNK d   0      38.108   4.010 -40.595  0.00  0.00     0.277 C 
ATOM     11  O   UNK d   0      38.457   4.844 -41.472  0.00  0.00    -0.265 OA
ATOM     12  N   UNK d   0      36.797   3.483 -40.651  0.00  0.00    -0.336 N 
ATOM     13  H   UNK d   0      36.508   2.827 -39.931  0.00  0.00     0.164 HD
BRANCH  12  14
ATOM     14  C   UNK d   0      35.827   3.845 -41.659  0.00  0.00     0.127 C 
BRANCH  14  15
ATOM     15  C   UNK d   0      34.604   2.973 -41.610  0.00  0.00    -0.000 A 
ATOM     16  C   UNK d   0      33.810   2.948 -40.462  0.00  0.00    -0.002 A 
ATOM     17  C   UNK d   0      32.676   2.138 -40.415  0.00  0.00     0.013 A 
ATOM     18  C   UNK d   0      32.335   1.352 -41.515  0.00  0.00     0.103 A 
ATOM     19  C   UNK d   0      33.128   1.376 -42.663  0.00  0.00     0.013 A 
ATOM     20  C   UNK d   0      34.263   2.186 -42.710  0.00  0.00    -0.002 A 
BRANCH  18  21
ATOM     21  S   UNK d   0      30.914   0.339 -41.458  0.00  0.00     0.258 S 
ATOM     22  O   UNK d   0      29.876   1.045 -40.721  0.00  0.00    -0.201 OA
ATOM     23  O   UNK d   0      30.642  -0.152 -42.800  0.00  0.00    -0.201 OA
BRANCH  21  24
ATOM     24  N   UNK d   0      31.479  -0.961 -40.503  0.00  0.00    -0.324 N 
ATOM     25  H   UNK d   0      32.380  -0.843 -40.023  0.00  0.00     0.169 HD
ATOM     26  H   UNK d   0      31.312  -1.914 -40.847  0.00  0.00     0.169 HD
ENDBRANCH  21  24
ENDBRANCH  18  21
ENDBRANCH  14  15
ENDBRANCH  12  14
ENDBRANCH   8  10
BRANCH   6  27
ATOM     27  O   UNK d   0      41.301   5.837 -36.827  0.00  0.00    -0.326 OA
ATOM     28  C   UNK d   0      40.302   6.574 -36.126  0.00  0.00     0.181 C 
ENDBRANCH   6  27
TORSDOF 6
ENDMDL
MODEL 7
REMARK VINA RESULT:      -6.4      3.066      3.883
REMARK  6 active torsions:
REMARK  status: ('A' for Active; 'I' for Inactive)
REMARK    1  A    between atoms: C_8  and  C_15 
REMARK    2  A    between atoms: S_22  and  C_11 
REMARK    3  A    between atoms: C_12  and  O_28 
REMARK    4  A    between atoms: C_24  and  C_14 
REMARK    5  A    between atoms: C_15  and  N_27 
REMARK    6  A    between atoms: S_22  and  N_26 
REMARK       I    between atoms: N_27  and  C_24 
ROOT
ATOM      1  C   UNK d   0      40.556   4.816 -37.604  0.00  0.00     0.027 A 
ATOM      2  C   UNK d   0      41.718   4.121 -35.604  0.00  0.00     0.002 A 
ATOM      3  C   UNK d   0      41.271   5.152 -36.441  0.00  0.00     0.002 A 
ATOM      4  C   UNK d   0      41.463   2.781 -35.912  0.00  0.00     0.026 A 
ATOM      5  C   UNK d   0      39.954   5.534 -38.671  0.00  0.00     0.032 A 
ATOM      6  C   UNK d   0      40.754   2.424 -37.063  0.00  0.00     0.117 A 
ATOM      7  C   UNK d   0      40.322   3.472 -37.874  0.00  0.00     0.122 A 
ATOM      8  C   UNK d   0      39.402   4.594 -39.509  0.00  0.00     0.155 A 
ATOM      9  O   UNK d   0      39.620   3.340 -39.035  0.00  0.00    -0.300 OA
ENDROOT
BRANCH   8  10
ATOM     10  C   UNK d   0      38.679   4.729 -40.727  0.00  0.00     0.277 C 
ATOM     11  O   UNK d   0      39.193   4.608 -41.870  0.00  0.00    -0.265 OA
ATOM     12  N   UNK d   0      37.305   5.048 -40.637  0.00  0.00    -0.336 N 
ATOM     13  H   UNK d   0      36.895   5.169 -39.715  0.00  0.00     0.164 HD
BRANCH  12  14
ATOM     14  C   UNK d   0      36.448   5.246 -41.784  0.00  0.00     0.127 C 
BRANCH  14  15
ATOM     15  C   UNK d   0      35.337   4.235 -41.844  0.00  0.00    -0.000 A 
ATOM     16  C   UNK d   0      34.946   3.700 -43.072  0.00  0.00    -0.002 A 
ATOM     17  C   UNK d   0      33.914   2.763 -43.128  0.00  0.00     0.013 A 
ATOM     18  C   UNK d   0      33.272   2.362 -41.957  0.00  0.00     0.103 A 
ATOM     19  C   UNK d   0      33.662   2.898 -40.729  0.00  0.00     0.013 A 
ATOM     20  C   UNK d   0      34.694   3.834 -40.673  0.00  0.00    -0.002 A 
BRANCH  18  21
ATOM     21  S   UNK d   0      31.981   1.189 -42.027  0.00  0.00     0.258 S 
ATOM     22  O   UNK d   0      30.716   1.887 -41.851  0.00  0.00    -0.201 OA
ATOM     23  O   UNK d   0      32.185   0.346 -43.195  0.00  0.00    -0.201 OA
BRANCH  21  24
ATOM     24  N   UNK d   0      32.301   0.268 -40.623  0.00  0.00    -0.324 N 
ATOM     25  H   UNK d   0      32.310  -0.755 -40.716  0.00  0.00     0.169 HD
ATOM     26  H   UNK d   0      31.911   0.603 -39.734  0.00  0.00     0.169 HD
ENDBRANCH  21  24
ENDBRANCH  18  21
ENDBRANCH  14  15
ENDBRANCH  12  14
ENDBRANCH   8  10
BRANCH   6  27
ATOM     27  O   UNK d   0      40.507   1.117 -37.360  0.00  0.00    -0.326 OA
ATOM     28  C   UNK d   0      40.979   0.142 -36.433  0.00  0.00     0.181 C 
ENDBRANCH   6  27
TORSDOF 6
ENDMDL
MODEL 8
REMARK VINA RESULT:      -6.3      3.973      5.484
REMARK  6 active torsions:
REMARK  status: ('A' for Active; 'I' for Inactive)
REMARK    1  A    between atoms: C_8  and  C_15 
REMARK    2  A    between atoms: S_22  and  C_11 
REMARK    3  A    between atoms: C_12  and  O_28 
REMARK    4  A    between atoms: C_24  and  C_14 
REMARK    5  A    between atoms: C_15  and  N_27 
REMARK    6  A    between atoms: S_22  and  N_26 
REMARK       I    between atoms: N_27  and  C_24 
ROOT
ATOM      1  C   UNK d   0      40.993   2.115 -36.812  0.00  0.00     0.027 A 
ATOM      2  C   UNK d   0      42.765   2.854 -35.346  0.00  0.00     0.002 A 
ATOM      3  C   UNK d   0      42.072   1.805 -35.965  0.00  0.00     0.002 A 
ATOM      4  C   UNK d   0      42.396   4.186 -35.559  0.00  0.00     0.026 A 
ATOM      5  C   UNK d   0      40.072   1.374 -37.596  0.00  0.00     0.032 A 
ATOM      6  C   UNK d   0      41.326   4.517 -36.396  0.00  0.00     0.117 A 
ATOM      7  C   UNK d   0      40.659   3.452 -36.998  0.00  0.00     0.122 A 
ATOM      8  C   UNK d   0      39.247   2.294 -38.200  0.00  0.00     0.155 A 
ATOM      9  O   UNK d   0      39.595   3.558 -37.844  0.00  0.00    -0.300 OA
ENDROOT
BRANCH   8  10
ATOM     10  C   UNK d   0      38.149   2.132 -39.090  0.00  0.00     0.277 C 
ATOM     11  O   UNK d   0      38.013   1.156 -39.873  0.00  0.00    -0.265 OA
ATOM     12  N   UNK d   0      37.170   3.152 -39.110  0.00  0.00    -0.336 N 
ATOM     13  H   UNK d   0      37.292   3.952 -38.494  0.00  0.00     0.164 HD
BRANCH  12  14
ATOM     14  C   UNK d   0      36.016   3.143 -39.978  0.00  0.00     0.127 C 
BRANCH  14  15
ATOM     15  C   UNK d   0      34.726   3.239 -39.212  0.00  0.00    -0.000 A 
ATOM     16  C   UNK d   0      34.662   4.008 -38.049  0.00  0.00    -0.002 A 
ATOM     17  C   UNK d   0      33.466   4.096 -37.336  0.00  0.00     0.013 A 
ATOM     18  C   UNK d   0      32.334   3.416 -37.786  0.00  0.00     0.103 A 
ATOM     19  C   UNK d   0      32.399   2.647 -38.949  0.00  0.00     0.013 A 
ATOM     20  C   UNK d   0      33.595   2.559 -39.661  0.00  0.00    -0.002 A 
BRANCH  18  21
ATOM     21  S   UNK d   0      30.837   3.526 -36.895  0.00  0.00     0.258 S 
ATOM     22  O   UNK d   0      31.153   3.659 -35.480  0.00  0.00    -0.201 OA
ATOM     23  O   UNK d   0      29.987   4.515 -37.542  0.00  0.00    -0.201 OA
BRANCH  21  24
ATOM     24  N   UNK d   0      30.179   1.973 -37.169  0.00  0.00    -0.324 N 
ATOM     25  H   UNK d   0      29.159   1.870 -37.108  0.00  0.00     0.169 HD
ATOM     26  H   UNK d   0      30.702   1.164 -36.812  0.00  0.00     0.169 HD
ENDBRANCH  21  24
ENDBRANCH  18  21
ENDBRANCH  14  15
ENDBRANCH  12  14
ENDBRANCH   8  10
BRANCH   6  27
ATOM     27  O   UNK d   0      40.970   5.817 -36.601  0.00  0.00    -0.326 OA
ATOM     28  C   UNK d   0      39.825   6.293 -35.898  0.00  0.00     0.181 C 
ENDBRANCH   6  27
TORSDOF 6
ENDMDL
MODEL 9
REMARK VINA RESULT:      -6.2     18.629     20.422
REMARK  6 active torsions:
REMARK  status: ('A' for Active; 'I' for Inactive)
REMARK    1  A    between atoms: C_8  and  C_15 
REMARK    2  A    between atoms: S_22  and  C_11 
REMARK    3  A    between atoms: C_12  and  O_28 
REMARK    4  A    between atoms: C_24  and  C_14 
REMARK    5  A    between atoms: C_15  and  N_27 
REMARK    6  A    between atoms: S_22  and  N_26 
REMARK       I    between atoms: N_27  and  C_24 
ROOT
ATOM      1  C   UNK d   0      31.899  -7.276 -20.538  0.00  0.00     0.027 A 
ATOM      2  C   UNK d   0      32.821  -8.431 -18.628  0.00  0.00     0.002 A 
ATOM      3  C   UNK d   0      31.738  -8.193 -19.484  0.00  0.00     0.002 A 
ATOM      4  C   UNK d   0      34.042  -7.775 -18.810  0.00  0.00     0.026 A 
ATOM      5  C   UNK d   0      31.080  -6.775 -21.584  0.00  0.00     0.032 A 
ATOM      6  C   UNK d   0      34.225  -6.859 -19.851  0.00  0.00     0.117 A 
ATOM      7  C   UNK d   0      33.129  -6.644 -20.685  0.00  0.00     0.122 A 
ATOM      8  C   UNK d   0      31.854  -5.883 -22.289  0.00  0.00     0.155 A 
ATOM      9  O   UNK d   0      33.098  -5.796 -21.752  0.00  0.00    -0.300 OA
ENDROOT
BRANCH   8  10
ATOM     10  C   UNK d   0      31.564  -5.084 -23.430  0.00  0.00     0.277 C 
ATOM     11  O   UNK d   0      32.217  -4.059 -23.759  0.00  0.00    -0.265 OA
ATOM     12  N   UNK d   0      30.452  -5.455 -24.220  0.00  0.00    -0.336 N 
ATOM     13  H   UNK d   0      29.911  -6.270 -23.942  0.00  0.00     0.164 HD
BRANCH  12  14
ATOM     14  C   UNK d   0      30.017  -4.728 -25.390  0.00  0.00     0.127 C 
BRANCH  14  15
ATOM     15  C   UNK d   0      29.518  -5.640 -26.475  0.00  0.00    -0.000 A 
ATOM     16  C   UNK d   0      28.856  -6.823 -26.143  0.00  0.00    -0.002 A 
ATOM     17  C   UNK d   0      28.395  -7.671 -27.150  0.00  0.00     0.013 A 
ATOM     18  C   UNK d   0      28.596  -7.337 -28.489  0.00  0.00     0.103 A 
ATOM     19  C   UNK d   0      29.258  -6.154 -28.821  0.00  0.00     0.013 A 
ATOM     20  C   UNK d   0      29.720  -5.306 -27.814  0.00  0.00    -0.002 A 
BRANCH  18  21
ATOM     21  S   UNK d   0      28.017  -8.397 -29.750  0.00  0.00     0.258 S 
ATOM     22  O   UNK d   0      26.712  -7.922 -30.186  0.00  0.00    -0.201 OA
ATOM     23  O   UNK d   0      29.083  -8.581 -30.724  0.00  0.00    -0.201 OA
BRANCH  21  24
ATOM     24  N   UNK d   0      27.811  -9.854 -28.881  0.00  0.00    -0.324 N 
ATOM     25  H   UNK d   0      27.101  -9.870 -28.138  0.00  0.00     0.169 HD
ATOM     26  H   UNK d   0      28.651 -10.404 -28.665  0.00  0.00     0.169 HD
ENDBRANCH  21  24
ENDBRANCH  18  21
ENDBRANCH  14  15
ENDBRANCH  12  14
ENDBRANCH   8  10
BRANCH   6  27
ATOM     27  O   UNK d   0      35.416  -6.221 -20.025  0.00  0.00    -0.326 OA
ATOM     28  C   UNK d   0      35.615  -5.009 -19.300  0.00  0.00     0.181 C 
ENDBRANCH   6  27
TORSDOF 6
ENDMDL
