MODEL 1
REMARK VINA RESULT:      -6.9      0.000      0.000
REMARK  6 active torsions:
REMARK  status: ('A' for Active; 'I' for Inactive)
REMARK    1  A    between atoms: C_8  and  C_15 
REMARK    2  A    between atoms: S_22  and  C_11 
REMARK    3  A    between atoms: C_12  and  O_28 
REMARK    4  A    between atoms: C_24  and  C_14 
REMARK    5  A    between atoms: C_15  and  N_27 
REMARK    6  A    between atoms: S_22  and  N_26 
REMARK       I    between atoms: N_27  and  C_24 
ROOT
ATOM      1  C   UNK d   0      61.876  74.962   9.814  0.00  0.00     0.027 A 
ATOM      2  C   UNK d   0      61.044  72.817   9.079  0.00  0.00     0.002 A 
ATOM      3  C   UNK d   0      61.849  73.941   8.848  0.00  0.00     0.002 A 
ATOM      4  C   UNK d   0      60.280  72.704  10.244  0.00  0.00     0.026 A 
ATOM      5  C   UNK d   0      62.533  76.212   9.954  0.00  0.00     0.032 A 
ATOM      6  C   UNK d   0      60.291  73.708  11.218  0.00  0.00     0.117 A 
ATOM      7  C   UNK d   0      61.101  74.812  10.960  0.00  0.00     0.122 A 
ATOM      8  C   UNK d   0      62.122  76.735  11.158  0.00  0.00     0.155 A 
ATOM      9  O   UNK d   0      61.253  75.894  11.776  0.00  0.00    -0.300 OA
ENDROOT
BRANCH   8  10
ATOM     10  C   UNK d   0      62.450  77.953  11.815  0.00  0.00     0.277 C 
ATOM     11  O   UNK d   0      62.346  78.136  13.056  0.00  0.00    -0.265 OA
ATOM     12  N   UNK d   0      62.891  79.029  11.011  0.00  0.00    -0.336 N 
ATOM     13  H   UNK d   0      62.954  78.889  10.006  0.00  0.00     0.164 HD
BRANCH  12  14
ATOM     14  C   UNK d   0      63.233  80.334  11.529  0.00  0.00     0.127 C 
BRANCH  14  15
ATOM     15  C   UNK d   0      64.715  80.502  11.715  0.00  0.00    -0.000 A 
ATOM     16  C   UNK d   0      65.306  80.180  12.938  0.00  0.00    -0.002 A 
ATOM     17  C   UNK d   0      66.681  80.337  13.111  0.00  0.00     0.013 A 
ATOM     18  C   UNK d   0      67.466  80.817  12.063  0.00  0.00     0.103 A 
ATOM     19  C   UNK d   0      66.875  81.138  10.840  0.00  0.00     0.013 A 
ATOM     20  C   UNK d   0      65.500  80.981  10.666  0.00  0.00    -0.002 A 
BRANCH  18  21
ATOM     21  S   UNK d   0      69.187  81.012  12.279  0.00  0.00     0.258 S 
ATOM     22  O   UNK d   0      69.805  81.125  10.965  0.00  0.00    -0.201 OA
ATOM     23  O   UNK d   0      69.413  82.048  13.276  0.00  0.00    -0.201 OA
BRANCH  21  24
ATOM     24  N   UNK d   0      69.604  79.499  12.955  0.00  0.00    -0.324 N 
ATOM     25  H   UNK d   0      69.109  78.669  12.607  0.00  0.00     0.169 HD
ATOM     26  H   UNK d   0      69.816  79.468  13.959  0.00  0.00     0.169 HD
ENDBRANCH  21  24
ENDBRANCH  18  21
ENDBRANCH  14  15
ENDBRANCH  12  14
ENDBRANCH   8  10
BRANCH   6  27
ATOM     27  O   UNK d   0      59.545  73.595  12.353  0.00  0.00    -0.326 OA
ATOM     28  C   UNK d   0      60.179  73.018  13.492  0.00  0.00     0.181 C 
ENDBRANCH   6  27
TORSDOF 6
ENDMDL
MODEL 2
REMARK VINA RESULT:      -6.9     18.377     22.231
REMARK  6 active torsions:
REMARK  status: ('A' for Active; 'I' for Inactive)
REMARK    1  A    between atoms: C_8  and  C_15 
REMARK    2  A    between atoms: S_22  and  C_11 
REMARK    3  A    between atoms: C_12  and  O_28 
REMARK    4  A    between atoms: C_24  and  C_14 
REMARK    5  A    between atoms: C_15  and  N_27 
REMARK    6  A    between atoms: S_22  and  N_26 
REMARK       I    between atoms: N_27  and  C_24 
ROOT
ATOM      1  C   UNK d   0      47.954  59.642  12.495  0.00  0.00     0.027 A 
ATOM      2  C   UNK d   0      46.543  59.434  10.546  0.00  0.00     0.002 A 
ATOM      3  C   UNK d   0      47.161  60.248  11.504  0.00  0.00     0.002 A 
ATOM      4  C   UNK d   0      46.706  58.045  10.566  0.00  0.00     0.026 A 
ATOM      5  C   UNK d   0      48.719  60.094  13.602  0.00  0.00     0.032 A 
ATOM      6  C   UNK d   0      47.489  57.422  11.542  0.00  0.00     0.117 A 
ATOM      7  C   UNK d   0      48.090  58.258  12.481  0.00  0.00     0.122 A 
ATOM      8  C   UNK d   0      49.264  58.972  14.182  0.00  0.00     0.155 A 
ATOM      9  O   UNK d   0      48.888  57.853  13.510  0.00  0.00    -0.300 OA
ENDROOT
BRANCH   8  10
ATOM     10  C   UNK d   0      50.111  58.816  15.313  0.00  0.00     0.277 C 
ATOM     11  O   UNK d   0      49.711  58.456  16.451  0.00  0.00    -0.265 OA
ATOM     12  N   UNK d   0      51.483  59.115  15.147  0.00  0.00    -0.336 N 
ATOM     13  H   UNK d   0      51.803  59.428  14.234  0.00  0.00     0.164 HD
BRANCH  12  14
ATOM     14  C   UNK d   0      52.460  59.032  16.208  0.00  0.00     0.127 C 
BRANCH  14  15
ATOM     15  C   UNK d   0      53.120  60.355  16.478  0.00  0.00    -0.000 A 
ATOM     16  C   UNK d   0      54.502  60.487  16.338  0.00  0.00    -0.002 A 
ATOM     17  C   UNK d   0      55.115  61.714  16.590  0.00  0.00     0.013 A 
ATOM     18  C   UNK d   0      54.347  62.810  16.983  0.00  0.00     0.103 A 
ATOM     19  C   UNK d   0      52.964  62.678  17.124  0.00  0.00     0.013 A 
ATOM     20  C   UNK d   0      52.351  61.451  16.871  0.00  0.00    -0.002 A 
BRANCH  18  21
ATOM     21  S   UNK d   0      55.113  64.347  17.298  0.00  0.00     0.258 S 
ATOM     22  O   UNK d   0      54.570  65.329  16.371  0.00  0.00    -0.201 OA
ATOM     23  O   UNK d   0      55.069  64.601  18.730  0.00  0.00    -0.201 OA
BRANCH  21  24
ATOM     24  N   UNK d   0      56.727  64.003  16.851  0.00  0.00    -0.324 N 
ATOM     25  H   UNK d   0      57.419  64.757  16.947  0.00  0.00     0.169 HD
ATOM     26  H   UNK d   0      56.877  63.401  16.033  0.00  0.00     0.169 HD
ENDBRANCH  21  24
ENDBRANCH  18  21
ENDBRANCH  14  15
ENDBRANCH  12  14
ENDBRANCH   8  10
BRANCH   6  27
ATOM     27  O   UNK d   0      47.645  56.068  11.560  0.00  0.00    -0.326 OA
ATOM     28  C   UNK d   0      46.530  55.293  11.993  0.00  0.00     0.181 C 
ENDBRANCH   6  27
TORSDOF 6
ENDMDL
MODEL 3
REMARK VINA RESULT:      -6.8      9.202     10.221
REMARK  6 active torsions:
REMARK  status: ('A' for Active; 'I' for Inactive)
REMARK    1  A    between atoms: C_8  and  C_15 
REMARK    2  A    between atoms: S_22  and  C_11 
REMARK    3  A    between atoms: C_12  and  O_28 
REMARK    4  A    between atoms: C_24  and  C_14 
REMARK    5  A    between atoms: C_15  and  N_27 
REMARK    6  A    between atoms: S_22  and  N_26 
REMARK       I    between atoms: N_27  and  C_24 
ROOT
ATOM      1  C   UNK d   0      64.395  69.388  15.660  0.00  0.00     0.027 A 
ATOM      2  C   UNK d   0      63.502  67.791  14.083  0.00  0.00     0.002 A 
ATOM      3  C   UNK d   0      64.607  68.337  14.751  0.00  0.00     0.002 A 
ATOM      4  C   UNK d   0      62.210  68.276  14.310  0.00  0.00     0.026 A 
ATOM      5  C   UNK d   0      65.213  70.183  16.504  0.00  0.00     0.032 A 
ATOM      6  C   UNK d   0      61.976  69.321  15.209  0.00  0.00     0.117 A 
ATOM      7  C   UNK d   0      63.095  69.842  15.857  0.00  0.00     0.122 A 
ATOM      8  C   UNK d   0      64.371  71.057  17.152  0.00  0.00     0.155 A 
ATOM      9  O   UNK d   0      63.084  70.859  16.766  0.00  0.00    -0.300 OA
ENDROOT
BRANCH   8  10
ATOM     10  C   UNK d   0      64.630  72.077  18.108  0.00  0.00     0.277 C 
ATOM     11  O   UNK d   0      63.738  72.661  18.777  0.00  0.00    -0.265 OA
ATOM     12  N   UNK d   0      65.975  72.475  18.289  0.00  0.00    -0.336 N 
ATOM     13  H   UNK d   0      66.693  72.019  17.733  0.00  0.00     0.164 HD
BRANCH  12  14
ATOM     14  C   UNK d   0      66.391  73.515  19.201  0.00  0.00     0.127 C 
BRANCH  14  15
ATOM     15  C   UNK d   0      67.617  73.132  19.981  0.00  0.00    -0.000 A 
ATOM     16  C   UNK d   0      68.098  71.823  19.927  0.00  0.00    -0.002 A 
ATOM     17  C   UNK d   0      69.235  71.466  20.651  0.00  0.00     0.013 A 
ATOM     18  C   UNK d   0      69.893  72.418  21.429  0.00  0.00     0.103 A 
ATOM     19  C   UNK d   0      69.413  73.728  21.483  0.00  0.00     0.013 A 
ATOM     20  C   UNK d   0      68.275  74.084  20.759  0.00  0.00    -0.002 A 
BRANCH  18  21
ATOM     21  S   UNK d   0      71.317  71.973  22.335  0.00  0.00     0.258 S 
ATOM     22  O   UNK d   0      71.403  72.832  23.507  0.00  0.00    -0.201 OA
ATOM     23  O   UNK d   0      71.330  70.527  22.495  0.00  0.00    -0.201 OA
BRANCH  21  24
ATOM     24  N   UNK d   0      72.552  72.415  21.238  0.00  0.00    -0.324 N 
ATOM     25  H   UNK d   0      73.502  72.071  21.426  0.00  0.00     0.169 HD
ATOM     26  H   UNK d   0      72.522  73.362  20.842  0.00  0.00     0.169 HD
ENDBRANCH  21  24
ENDBRANCH  18  21
ENDBRANCH  14  15
ENDBRANCH  12  14
ENDBRANCH   8  10
BRANCH   6  27
ATOM     27  O   UNK d   0      60.716  69.792  15.428  0.00  0.00    -0.326 OA
ATOM     28  C   UNK d   0      59.667  69.221  14.649  0.00  0.00     0.181 C 
ENDBRANCH   6  27
TORSDOF 6
ENDMDL
MODEL 4
REMARK VINA RESULT:      -6.6     22.250     24.702
REMARK  6 active torsions:
REMARK  status: ('A' for Active; 'I' for Inactive)
REMARK    1  A    between atoms: C_8  and  C_15 
REMARK    2  A    between atoms: S_22  and  C_11 
REMARK    3  A    between atoms: C_12  and  O_28 
REMARK    4  A    between atoms: C_24  and  C_14 
REMARK    5  A    between atoms: C_15  and  N_27 
REMARK    6  A    between atoms: S_22  and  N_26 
REMARK       I    between atoms: N_27  and  C_24 
ROOT
ATOM      1  C   UNK d   0      75.553  78.726  -5.231  0.00  0.00     0.027 A 
ATOM      2  C   UNK d   0      74.801  79.023  -2.955  0.00  0.00     0.002 A 
ATOM      3  C   UNK d   0      75.552  78.299  -3.892  0.00  0.00     0.002 A 
ATOM      4  C   UNK d   0      74.065  80.149  -3.336  0.00  0.00     0.026 A 
ATOM      5  C   UNK d   0      76.158  78.287  -6.438  0.00  0.00     0.032 A 
ATOM      6  C   UNK d   0      74.052  80.592  -4.663  0.00  0.00     0.117 A 
ATOM      7  C   UNK d   0      74.808  79.851  -5.570  0.00  0.00     0.122 A 
ATOM      8  C   UNK d   0      75.748  79.160  -7.419  0.00  0.00     0.155 A 
ATOM      9  O   UNK d   0      74.928  80.112  -6.903  0.00  0.00    -0.300 OA
ENDROOT
BRANCH   8  10
ATOM     10  C   UNK d   0      76.035  79.212  -8.811  0.00  0.00     0.277 C 
ATOM     11  O   UNK d   0      76.521  80.216  -9.394  0.00  0.00    -0.265 OA
ATOM     12  N   UNK d   0      75.723  78.071  -9.584  0.00  0.00    -0.336 N 
ATOM     13  H   UNK d   0      75.310  77.268  -9.117  0.00  0.00     0.164 HD
BRANCH  12  14
ATOM     14  C   UNK d   0      75.930  77.984 -11.011  0.00  0.00     0.127 C 
BRANCH  14  15
ATOM     15  C   UNK d   0      76.296  76.594 -11.450  0.00  0.00    -0.000 A 
ATOM     16  C   UNK d   0      77.008  76.400 -12.635  0.00  0.00    -0.002 A 
ATOM     17  C   UNK d   0      77.347  75.110 -13.043  0.00  0.00     0.013 A 
ATOM     18  C   UNK d   0      76.973  74.013 -12.267  0.00  0.00     0.103 A 
ATOM     19  C   UNK d   0      76.261  74.206 -11.082  0.00  0.00     0.013 A 
ATOM     20  C   UNK d   0      75.923  75.496 -10.674  0.00  0.00    -0.002 A 
BRANCH  18  21
ATOM     21  S   UNK d   0      77.398  72.398 -12.777  0.00  0.00     0.258 S 
ATOM     22  O   UNK d   0      77.289  72.331 -14.227  0.00  0.00    -0.201 OA
ATOM     23  O   UNK d   0      78.644  72.021 -12.126  0.00  0.00    -0.201 OA
BRANCH  21  24
ATOM     24  N   UNK d   0      76.123  71.493 -12.087  0.00  0.00    -0.324 N 
ATOM     25  H   UNK d   0      75.182  71.907 -12.101  0.00  0.00     0.169 HD
ATOM     26  H   UNK d   0      76.327  70.952 -11.238  0.00  0.00     0.169 HD
ENDBRANCH  21  24
ENDBRANCH  18  21
ENDBRANCH  14  15
ENDBRANCH  12  14
ENDBRANCH   8  10
BRANCH   6  27
ATOM     27  O   UNK d   0      73.333  81.689  -5.031  0.00  0.00    -0.326 OA
ATOM     28  C   UNK d   0      73.998  82.949  -4.975  0.00  0.00     0.181 C 
ENDBRANCH   6  27
TORSDOF 6
ENDMDL
MODEL 5
REMARK VINA RESULT:      -6.5      7.293     10.529
REMARK  6 active torsions:
REMARK  status: ('A' for Active; 'I' for Inactive)
REMARK    1  A    between atoms: C_8  and  C_15 
REMARK    2  A    between atoms: S_22  and  C_11 
REMARK    3  A    between atoms: C_12  and  O_28 
REMARK    4  A    between atoms: C_24  and  C_14 
REMARK    5  A    between atoms: C_15  and  N_27 
REMARK    6  A    between atoms: S_22  and  N_26 
REMARK       I    between atoms: N_27  and  C_24 
ROOT
ATOM      1  C   UNK d   0      60.571  76.543  10.842  0.00  0.00     0.027 A 
ATOM      2  C   UNK d   0      62.798  76.171   9.983  0.00  0.00     0.002 A 
ATOM      3  C   UNK d   0      61.886  77.002  10.649  0.00  0.00     0.002 A 
ATOM      4  C   UNK d   0      62.415  74.910   9.515  0.00  0.00     0.026 A 
ATOM      5  C   UNK d   0      59.393  77.058  11.444  0.00  0.00     0.032 A 
ATOM      6  C   UNK d   0      61.113  74.434   9.695  0.00  0.00     0.117 A 
ATOM      7  C   UNK d   0      60.230  75.283  10.361  0.00  0.00     0.122 A 
ATOM      8  C   UNK d   0      58.425  76.091  11.292  0.00  0.00     0.155 A 
ATOM      9  O   UNK d   0      58.923  75.011  10.637  0.00  0.00    -0.300 OA
ENDROOT
BRANCH   8  10
ATOM     10  C   UNK d   0      57.062  76.055  11.695  0.00  0.00     0.277 C 
ATOM     11  O   UNK d   0      56.681  75.951  12.891  0.00  0.00    -0.265 OA
ATOM     12  N   UNK d   0      56.080  76.110  10.679  0.00  0.00    -0.336 N 
ATOM     13  H   UNK d   0      56.388  76.172   9.712  0.00  0.00     0.164 HD
BRANCH  12  14
ATOM     14  C   UNK d   0      54.658  76.054  10.929  0.00  0.00     0.127 C 
BRANCH  14  15
ATOM     15  C   UNK d   0      53.923  77.201  10.293  0.00  0.00    -0.000 A 
ATOM     16  C   UNK d   0      52.604  77.034   9.868  0.00  0.00    -0.002 A 
ATOM     17  C   UNK d   0      51.923  78.097   9.276  0.00  0.00     0.013 A 
ATOM     18  C   UNK d   0      52.559  79.327   9.109  0.00  0.00     0.103 A 
ATOM     19  C   UNK d   0      53.878  79.494   9.534  0.00  0.00     0.013 A 
ATOM     20  C   UNK d   0      54.559  78.431  10.126  0.00  0.00    -0.002 A 
BRANCH  18  21
ATOM     21  S   UNK d   0      51.705  80.658   8.369  0.00  0.00     0.258 S 
ATOM     22  O   UNK d   0      51.220  80.226   7.067  0.00  0.00    -0.201 OA
ATOM     23  O   UNK d   0      50.773  81.207   9.342  0.00  0.00    -0.201 OA
BRANCH  21  24
ATOM     24  N   UNK d   0      52.979  81.774   8.140  0.00  0.00    -0.324 N 
ATOM     25  H   UNK d   0      53.219  82.391   8.925  0.00  0.00     0.169 HD
ATOM     26  H   UNK d   0      53.061  82.222   7.219  0.00  0.00     0.169 HD
ENDBRANCH  21  24
ENDBRANCH  18  21
ENDBRANCH  14  15
ENDBRANCH  12  14
ENDBRANCH   8  10
BRANCH   6  27
ATOM     27  O   UNK d   0      60.744  73.205   9.237  0.00  0.00    -0.326 OA
ATOM     28  C   UNK d   0      61.586  72.598   8.260  0.00  0.00     0.181 C 
ENDBRANCH   6  27
TORSDOF 6
ENDMDL
MODEL 6
REMARK VINA RESULT:      -6.4     23.502     25.274
REMARK  6 active torsions:
REMARK  status: ('A' for Active; 'I' for Inactive)
REMARK    1  A    between atoms: C_8  and  C_15 
REMARK    2  A    between atoms: S_22  and  C_11 
REMARK    3  A    between atoms: C_12  and  O_28 
REMARK    4  A    between atoms: C_24  and  C_14 
REMARK    5  A    between atoms: C_15  and  N_27 
REMARK    6  A    between atoms: S_22  and  N_26 
REMARK       I    between atoms: N_27  and  C_24 
ROOT
ATOM      1  C   UNK d   0      77.081  74.713 -12.063  0.00  0.00     0.027 A 
ATOM      2  C   UNK d   0      77.296  74.076 -14.382  0.00  0.00     0.002 A 
ATOM      3  C   UNK d   0      77.121  75.079 -13.420  0.00  0.00     0.002 A 
ATOM      4  C   UNK d   0      77.428  72.735 -14.010  0.00  0.00     0.026 A 
ATOM      5  C   UNK d   0      76.927  75.398 -10.829  0.00  0.00     0.032 A 
ATOM      6  C   UNK d   0      77.390  72.348 -12.667  0.00  0.00     0.117 A 
ATOM      7  C   UNK d   0      77.216  73.368 -11.734  0.00  0.00     0.122 A 
ATOM      8  C   UNK d   0      76.977  74.440  -9.843  0.00  0.00     0.155 A 
ATOM      9  O   UNK d   0      77.152  73.206 -10.382  0.00  0.00    -0.300 OA
ENDROOT
BRANCH   8  10
ATOM     10  C   UNK d   0      76.878  74.541  -8.428  0.00  0.00     0.277 C 
ATOM     11  O   UNK d   0      76.533  73.594  -7.675  0.00  0.00    -0.265 OA
ATOM     12  N   UNK d   0      77.159  75.798  -7.843  0.00  0.00    -0.336 N 
ATOM     13  H   UNK d   0      77.416  76.569  -8.453  0.00  0.00     0.164 HD
BRANCH  12  14
ATOM     14  C   UNK d   0      77.074  76.063  -6.426  0.00  0.00     0.127 C 
BRANCH  14  15
ATOM     15  C   UNK d   0      78.429  76.162  -5.783  0.00  0.00    -0.000 A 
ATOM     16  C   UNK d   0      78.761  77.284  -5.022  0.00  0.00    -0.002 A 
ATOM     17  C   UNK d   0      80.019  77.376  -4.427  0.00  0.00     0.013 A 
ATOM     18  C   UNK d   0      80.946  76.348  -4.593  0.00  0.00     0.103 A 
ATOM     19  C   UNK d   0      80.615  75.226  -5.354  0.00  0.00     0.013 A 
ATOM     20  C   UNK d   0      79.357  75.133  -5.949  0.00  0.00    -0.002 A 
BRANCH  18  21
ATOM     21  S   UNK d   0      82.520  76.463  -3.847  0.00  0.00     0.258 S 
ATOM     22  O   UNK d   0      83.531  76.243  -4.872  0.00  0.00    -0.201 OA
ATOM     23  O   UNK d   0      82.561  77.672  -3.038  0.00  0.00    -0.201 OA
BRANCH  21  24
ATOM     24  N   UNK d   0      82.488  75.107  -2.807  0.00  0.00    -0.324 N 
ATOM     25  H   UNK d   0      81.669  74.995  -2.196  0.00  0.00     0.169 HD
ATOM     26  H   UNK d   0      83.373  74.816  -2.374  0.00  0.00     0.169 HD
ENDBRANCH  21  24
ENDBRANCH  18  21
ENDBRANCH  14  15
ENDBRANCH  12  14
ENDBRANCH   8  10
BRANCH   6  27
ATOM     27  O   UNK d   0      77.519  71.039 -12.308  0.00  0.00    -0.326 OA
ATOM     28  C   UNK d   0      78.843  70.543 -12.129  0.00  0.00     0.181 C 
ENDBRANCH   6  27
TORSDOF 6
ENDMDL
MODEL 7
REMARK VINA RESULT:      -6.4     35.041     36.771
REMARK  6 active torsions:
REMARK  status: ('A' for Active; 'I' for Inactive)
REMARK    1  A    between atoms: C_8  and  C_15 
REMARK    2  A    between atoms: S_22  and  C_11 
REMARK    3  A    between atoms: C_12  and  O_28 
REMARK    4  A    between atoms: C_24  and  C_14 
REMARK    5  A    between atoms: C_15  and  N_27 
REMARK    6  A    between atoms: S_22  and  N_26 
REMARK       I    between atoms: N_27  and  C_24 
ROOT
ATOM      1  C   UNK d   0      57.628  52.287 -12.229  0.00  0.00     0.027 A 
ATOM      2  C   UNK d   0      55.423  53.103 -12.781  0.00  0.00     0.002 A 
ATOM      3  C   UNK d   0      56.752  52.873 -13.160  0.00  0.00     0.002 A 
ATOM      4  C   UNK d   0      54.968  52.760 -11.504  0.00  0.00     0.026 A 
ATOM      5  C   UNK d   0      58.995  51.904 -12.221  0.00  0.00     0.032 A 
ATOM      6  C   UNK d   0      55.821  52.177 -10.562  0.00  0.00     0.117 A 
ATOM      7  C   UNK d   0      57.137  51.961 -10.970  0.00  0.00     0.122 A 
ATOM      8  C   UNK d   0      59.243  51.377 -10.975  0.00  0.00     0.155 A 
ATOM      9  O   UNK d   0      58.123  51.407 -10.208  0.00  0.00    -0.300 OA
ENDROOT
BRANCH   8  10
ATOM     10  C   UNK d   0      60.428  50.838 -10.402  0.00  0.00     0.277 C 
ATOM     11  O   UNK d   0      61.316  51.527  -9.836  0.00  0.00    -0.265 OA
ATOM     12  N   UNK d   0      60.625  49.441 -10.506  0.00  0.00    -0.336 N 
ATOM     13  H   UNK d   0      59.918  48.887 -10.982  0.00  0.00     0.164 HD
BRANCH  12  14
ATOM     14  C   UNK d   0      61.789  48.753  -9.999  0.00  0.00     0.127 C 
BRANCH  14  15
ATOM     15  C   UNK d   0      61.443  47.424  -9.387  0.00  0.00    -0.000 A 
ATOM     16  C   UNK d   0      61.694  47.192  -8.034  0.00  0.00    -0.002 A 
ATOM     17  C   UNK d   0      61.374  45.959  -7.466  0.00  0.00     0.013 A 
ATOM     18  C   UNK d   0      60.804  44.957  -8.251  0.00  0.00     0.103 A 
ATOM     19  C   UNK d   0      60.553  45.189  -9.604  0.00  0.00     0.013 A 
ATOM     20  C   UNK d   0      60.873  46.422 -10.172  0.00  0.00    -0.002 A 
BRANCH  18  21
ATOM     21  S   UNK d   0      60.402  43.414  -7.540  0.00  0.00     0.258 S 
ATOM     22  O   UNK d   0      59.107  42.994  -8.055  0.00  0.00    -0.201 OA
ATOM     23  O   UNK d   0      61.552  42.532  -7.670  0.00  0.00    -0.201 OA
BRANCH  21  24
ATOM     24  N   UNK d   0      60.227  43.848  -5.896  0.00  0.00    -0.324 N 
ATOM     25  H   UNK d   0      61.079  44.076  -5.370  0.00  0.00     0.169 HD
ATOM     26  H   UNK d   0      59.517  43.351  -5.345  0.00  0.00     0.169 HD
ENDBRANCH  21  24
ENDBRANCH  18  21
ENDBRANCH  14  15
ENDBRANCH  12  14
ENDBRANCH   8  10
BRANCH   6  27
ATOM     27  O   UNK d   0      55.374  51.845  -9.319  0.00  0.00    -0.326 OA
ATOM     28  C   UNK d   0      54.210  51.027  -9.246  0.00  0.00     0.181 C 
ENDBRANCH   6  27
TORSDOF 6
ENDMDL
MODEL 8
REMARK VINA RESULT:      -6.4     22.608     24.533
REMARK  6 active torsions:
REMARK  status: ('A' for Active; 'I' for Inactive)
REMARK    1  A    between atoms: C_8  and  C_15 
REMARK    2  A    between atoms: S_22  and  C_11 
REMARK    3  A    between atoms: C_12  and  O_28 
REMARK    4  A    between atoms: C_24  and  C_14 
REMARK    5  A    between atoms: C_15  and  N_27 
REMARK    6  A    between atoms: S_22  and  N_26 
REMARK       I    between atoms: N_27  and  C_24 
ROOT
ATOM      1  C   UNK d   0      47.844  57.532  13.338  0.00  0.00     0.027 A 
ATOM      2  C   UNK d   0      46.322  56.648  11.683  0.00  0.00     0.002 A 
ATOM      3  C   UNK d   0      46.955  56.523  12.928  0.00  0.00     0.002 A 
ATOM      4  C   UNK d   0      46.565  57.751  10.859  0.00  0.00     0.026 A 
ATOM      5  C   UNK d   0      48.653  57.771  14.479  0.00  0.00     0.032 A 
ATOM      6  C   UNK d   0      47.445  58.766  11.247  0.00  0.00     0.117 A 
ATOM      7  C   UNK d   0      48.057  58.613  12.489  0.00  0.00     0.122 A 
ATOM      8  C   UNK d   0      49.298  58.966  14.255  0.00  0.00     0.155 A 
ATOM      9  O   UNK d   0      48.944  59.484  13.050  0.00  0.00    -0.300 OA
ENDROOT
BRANCH   8  10
ATOM     10  C   UNK d   0      50.226  59.696  15.047  0.00  0.00     0.277 C 
ATOM     11  O   UNK d   0      50.042  60.878  15.441  0.00  0.00    -0.265 OA
ATOM     12  N   UNK d   0      51.442  59.057  15.383  0.00  0.00    -0.336 N 
ATOM     13  H   UNK d   0      51.600  58.111  15.046  0.00  0.00     0.164 HD
BRANCH  12  14
ATOM     14  C   UNK d   0      52.492  59.679  16.155  0.00  0.00     0.127 C 
BRANCH  14  15
ATOM     15  C   UNK d   0      52.761  58.950  17.441  0.00  0.00    -0.000 A 
ATOM     16  C   UNK d   0      54.075  58.690  17.834  0.00  0.00    -0.002 A 
ATOM     17  C   UNK d   0      54.325  58.012  19.027  0.00  0.00     0.013 A 
ATOM     18  C   UNK d   0      53.263  57.593  19.827  0.00  0.00     0.103 A 
ATOM     19  C   UNK d   0      51.949  57.853  19.434  0.00  0.00     0.013 A 
ATOM     20  C   UNK d   0      51.699  58.531  18.241  0.00  0.00    -0.002 A 
BRANCH  18  21
ATOM     21  S   UNK d   0      53.575  56.745  21.321  0.00  0.00     0.258 S 
ATOM     22  O   UNK d   0      54.776  55.940  21.149  0.00  0.00    -0.201 OA
ATOM     23  O   UNK d   0      53.494  57.696  22.418  0.00  0.00    -0.201 OA
BRANCH  21  24
ATOM     24  N   UNK d   0      52.221  55.705  21.394  0.00  0.00    -0.324 N 
ATOM     25  H   UNK d   0      51.670  55.579  20.537  0.00  0.00     0.169 HD
ATOM     26  H   UNK d   0      51.659  55.714  22.254  0.00  0.00     0.169 HD
ENDBRANCH  21  24
ENDBRANCH  18  21
ENDBRANCH  14  15
ENDBRANCH  12  14
ENDBRANCH   8  10
BRANCH   6  27
ATOM     27  O   UNK d   0      47.679  59.840  10.441  0.00  0.00    -0.326 OA
ATOM     28  C   UNK d   0      46.781  60.941  10.551  0.00  0.00     0.181 C 
ENDBRANCH   6  27
TORSDOF 6
ENDMDL
MODEL 9
REMARK VINA RESULT:      -6.3     19.202     22.767
REMARK  6 active torsions:
REMARK  status: ('A' for Active; 'I' for Inactive)
REMARK    1  A    between atoms: C_8  and  C_15 
REMARK    2  A    between atoms: S_22  and  C_11 
REMARK    3  A    between atoms: C_12  and  O_28 
REMARK    4  A    between atoms: C_24  and  C_14 
REMARK    5  A    between atoms: C_15  and  N_27 
REMARK    6  A    between atoms: S_22  and  N_26 
REMARK       I    between atoms: N_27  and  C_24 
ROOT
ATOM      1  C   UNK d   0      47.022  57.621  12.523  0.00  0.00     0.027 A 
ATOM      2  C   UNK d   0      45.510  58.148  10.715  0.00  0.00     0.002 A 
ATOM      3  C   UNK d   0      45.958  57.242  11.686  0.00  0.00     0.002 A 
ATOM      4  C   UNK d   0      46.104  59.406  10.574  0.00  0.00     0.026 A 
ATOM      5  C   UNK d   0      47.742  57.018  13.588  0.00  0.00     0.032 A 
ATOM      6  C   UNK d   0      47.164  59.803  11.395  0.00  0.00     0.117 A 
ATOM      7  C   UNK d   0      47.586  58.881  12.350  0.00  0.00     0.122 A 
ATOM      8  C   UNK d   0      48.685  57.937  13.988  0.00  0.00     0.155 A 
ATOM      9  O   UNK d   0      48.598  59.070  13.244  0.00  0.00    -0.300 OA
ENDROOT
BRANCH   8  10
ATOM     10  C   UNK d   0      49.678  57.883  15.005  0.00  0.00     0.277 C 
ATOM     11  O   UNK d   0      50.505  56.943  15.134  0.00  0.00    -0.265 OA
ATOM     12  N   UNK d   0      49.709  58.941  15.943  0.00  0.00    -0.336 N 
ATOM     13  H   UNK d   0      49.026  59.688  15.852  0.00  0.00     0.164 HD
BRANCH  12  14
ATOM     14  C   UNK d   0      50.639  59.011  17.046  0.00  0.00     0.127 C 
BRANCH  14  15
ATOM     15  C   UNK d   0      51.513  60.231  16.977  0.00  0.00    -0.000 A 
ATOM     16  C   UNK d   0      50.958  61.499  17.158  0.00  0.00    -0.002 A 
ATOM     17  C   UNK d   0      51.768  62.632  17.093  0.00  0.00     0.013 A 
ATOM     18  C   UNK d   0      53.135  62.498  16.846  0.00  0.00     0.103 A 
ATOM     19  C   UNK d   0      53.690  61.231  16.664  0.00  0.00     0.013 A 
ATOM     20  C   UNK d   0      52.879  60.098  16.730  0.00  0.00    -0.002 A 
BRANCH  18  21
ATOM     21  S   UNK d   0      54.150  63.916  16.765  0.00  0.00     0.258 S 
ATOM     22  O   UNK d   0      53.694  64.745  15.658  0.00  0.00    -0.201 OA
ATOM     23  O   UNK d   0      54.256  64.486  18.100  0.00  0.00    -0.201 OA
BRANCH  21  24
ATOM     24  N   UNK d   0      55.652  63.217  16.346  0.00  0.00    -0.324 N 
ATOM     25  H   UNK d   0      55.812  62.237  16.610  0.00  0.00     0.169 HD
ATOM     26  H   UNK d   0      56.489  63.809  16.413  0.00  0.00     0.169 HD
ENDBRANCH  21  24
ENDBRANCH  18  21
ENDBRANCH  14  15
ENDBRANCH  12  14
ENDBRANCH   8  10
BRANCH   6  27
ATOM     27  O   UNK d   0      47.741  61.030  11.254  0.00  0.00    -0.326 OA
ATOM     28  C   UNK d   0      47.201  62.094  12.033  0.00  0.00     0.181 C 
ENDBRANCH   6  27
TORSDOF 6
ENDMDL
