MODEL 1
REMARK VINA RESULT:      -8.7      0.000      0.000
REMARK  6 active torsions:
REMARK  status: ('A' for Active; 'I' for Inactive)
REMARK    1  A    between atoms: S_1  and  N_8 
REMARK    2  A    between atoms: S_1  and  C_15 
REMARK    3  A    between atoms: O_3  and  C_19 
REMARK    4  A    between atoms: N_7  and  C_11 
REMARK       I    between atoms: N_7  and  C_18 
REMARK    5  A    between atoms: C_10  and  C_11 
REMARK    6  A    between atoms: C_13  and  C_18 
ROOT
ATOM      1  S           0      66.862  61.880  10.772  0.00  0.00     0.256 S 
ATOM      2  O           0      65.794  61.214  10.039  0.00  0.00    -0.201 OA
ATOM      3  O           0      68.202  61.933  10.209  0.00  0.00    -0.201 OA
ENDROOT
BRANCH   1   4
ATOM      4  N           0      66.953  61.209  12.342  0.00  0.00    -0.324 N 
ATOM      5  H           0      67.476  61.733  13.054  0.00  0.00     0.169 HD
ATOM      6  H           0      67.048  60.190  12.420  0.00  0.00     0.169 HD
ENDBRANCH   1   4
BRANCH   1   7
ATOM      7  C           0      66.348  63.508  11.136  0.00  0.00     0.079 A 
ATOM      8  C           0      65.064  63.742  11.627  0.00  0.00     0.026 A 
ATOM      9  C           0      64.653  65.043  11.916  0.00  0.00     0.010 A 
ATOM     10  C           0      65.527  66.112  11.713  0.00  0.00    -0.040 A 
ATOM     11  C           0      66.812  65.879  11.222  0.00  0.00     0.010 A 
ATOM     12  C           0      67.222  64.578  10.933  0.00  0.00     0.026 A 
BRANCH  10  13
ATOM     13  C           0      65.085  67.514  12.026  0.00  0.00     0.161 C 
BRANCH  13  14
ATOM     14  N           0      63.779  67.551  12.643  0.00  0.00    -0.351 N 
ATOM     15  C           0      63.536  68.042  13.946  0.00  0.00     0.275 C 
ATOM     16  O           0      64.512  68.475  14.614  0.00  0.00    -0.265 OA
ATOM     17  H           0      62.989  67.222  12.094  0.00  0.00     0.163 HD
BRANCH  15  18
ATOM     18  C           0      62.191  68.042  14.407  0.00  0.00     0.144 A 
ATOM     19  O           0      61.565  69.240  14.543  0.00  0.00    -0.301 OA
ATOM     20  C           0      60.305  68.979  14.992  0.00  0.00     0.119 A 
ATOM     21  C           0      60.122  67.609  15.143  0.00  0.00     0.003 A 
ATOM     22  C           0      59.327  69.935  15.264  0.00  0.00     0.102 A 
ATOM     23  C           0      61.351  67.011  14.762  0.00  0.00     0.057 A 
ATOM     24  C           0      58.876  67.145  15.600  0.00  0.00     0.014 A 
ATOM     25  C           0      57.871  68.081  15.883  0.00  0.00     0.004 A 
ATOM     26  C           0      58.095  69.451  15.717  0.00  0.00     0.040 A 
BRANCH  22  27
ATOM     27  O           0      59.541  71.271  15.103  0.00  0.00    -0.353 OA
ATOM     28  C           0      58.413  72.071  14.758  0.00  0.00     0.210 C 
ENDBRANCH  22  27
ENDBRANCH  15  18
ENDBRANCH  13  14
ENDBRANCH  10  13
ENDBRANCH   1   7
TORSDOF 6
ENDMDL
MODEL 2
REMARK VINA RESULT:      -7.7      2.173      3.013
REMARK  6 active torsions:
REMARK  status: ('A' for Active; 'I' for Inactive)
REMARK    1  A    between atoms: S_1  and  N_8 
REMARK    2  A    between atoms: S_1  and  C_15 
REMARK    3  A    between atoms: O_3  and  C_19 
REMARK    4  A    between atoms: N_7  and  C_11 
REMARK       I    between atoms: N_7  and  C_18 
REMARK    5  A    between atoms: C_10  and  C_11 
REMARK    6  A    between atoms: C_13  and  C_18 
ROOT
ATOM      1  S           0      66.608  62.964  11.252  0.00  0.00     0.256 S 
ATOM      2  O           0      65.684  62.187  10.439  0.00  0.00    -0.201 OA
ATOM      3  O           0      67.914  63.324  10.720  0.00  0.00    -0.201 OA
ENDROOT
BRANCH   1   4
ATOM      4  N           0      66.827  62.169  12.750  0.00  0.00    -0.324 N 
ATOM      5  H           0      66.260  62.487  13.545  0.00  0.00     0.169 HD
ATOM      6  H           0      67.781  61.887  13.004  0.00  0.00     0.169 HD
ENDBRANCH   1   4
BRANCH   1   7
ATOM      7  C           0      65.797  64.423  11.766  0.00  0.00     0.079 A 
ATOM      8  C           0      66.285  65.668  11.371  0.00  0.00     0.026 A 
ATOM      9  C           0      65.638  66.833  11.783  0.00  0.00     0.010 A 
ATOM     10  C           0      64.501  66.753  12.589  0.00  0.00    -0.040 A 
ATOM     11  C           0      64.013  65.507  12.983  0.00  0.00     0.010 A 
ATOM     12  C           0      64.661  64.342  12.572  0.00  0.00     0.026 A 
BRANCH  10  13
ATOM     13  C           0      63.803  68.008  13.030  0.00  0.00     0.161 C 
BRANCH  13  14
ATOM     14  N           0      62.624  67.730  13.818  0.00  0.00    -0.351 N 
ATOM     15  C           0      62.259  68.458  14.974  0.00  0.00     0.275 C 
ATOM     16  O           0      63.001  69.405  15.344  0.00  0.00    -0.265 OA
ATOM     17  H           0      62.014  66.979  13.506  0.00  0.00     0.163 HD
BRANCH  15  18
ATOM     18  C           0      61.053  68.086  15.629  0.00  0.00     0.144 A 
ATOM     19  O           0      61.087  67.920  16.977  0.00  0.00    -0.301 OA
ATOM     20  C           0      59.828  67.570  17.365  0.00  0.00     0.119 A 
ATOM     21  C           0      58.983  67.512  16.261  0.00  0.00     0.003 A 
ATOM     22  C           0      59.425  67.305  18.673  0.00  0.00     0.102 A 
ATOM     23  C           0      59.789  67.848  15.141  0.00  0.00     0.057 A 
ATOM     24  C           0      57.636  67.166  16.464  0.00  0.00     0.014 A 
ATOM     25  C           0      57.200  66.894  17.768  0.00  0.00     0.004 A 
ATOM     26  C           0      58.081  66.963  18.852  0.00  0.00     0.040 A 
BRANCH  22  27
ATOM     27  O           0      60.281  67.372  19.732  0.00  0.00    -0.353 OA
ATOM     28  C           0      60.669  66.138  20.330  0.00  0.00     0.210 C 
ENDBRANCH  22  27
ENDBRANCH  15  18
ENDBRANCH  13  14
ENDBRANCH  10  13
ENDBRANCH   1   7
TORSDOF 6
ENDMDL
MODEL 3
REMARK VINA RESULT:      -7.2      2.076      3.393
REMARK  6 active torsions:
REMARK  status: ('A' for Active; 'I' for Inactive)
REMARK    1  A    between atoms: S_1  and  N_8 
REMARK    2  A    between atoms: S_1  and  C_15 
REMARK    3  A    between atoms: O_3  and  C_19 
REMARK    4  A    between atoms: N_7  and  C_11 
REMARK       I    between atoms: N_7  and  C_18 
REMARK    5  A    between atoms: C_10  and  C_11 
REMARK    6  A    between atoms: C_13  and  C_18 
ROOT
ATOM      1  S           0      66.591  63.977  11.098  0.00  0.00     0.256 S 
ATOM      2  O           0      66.236  63.019  10.060  0.00  0.00    -0.201 OA
ATOM      3  O           0      67.338  65.176  10.751  0.00  0.00    -0.201 OA
ENDROOT
BRANCH   1   4
ATOM      4  N           0      67.423  63.154  12.344  0.00  0.00    -0.324 N 
ATOM      5  H           0      68.415  62.934  12.190  0.00  0.00     0.169 HD
ATOM      6  H           0      66.911  62.430  12.862  0.00  0.00     0.169 HD
ENDBRANCH   1   4
BRANCH   1   7
ATOM      7  C           0      65.132  64.453  11.930  0.00  0.00     0.079 A 
ATOM      8  C           0      64.754  65.795  11.963  0.00  0.00     0.026 A 
ATOM      9  C           0      63.589  66.175  12.629  0.00  0.00     0.010 A 
ATOM     10  C           0      62.801  65.212  13.262  0.00  0.00    -0.040 A 
ATOM     11  C           0      63.179  63.870  13.229  0.00  0.00     0.010 A 
ATOM     12  C           0      64.344  63.490  12.563  0.00  0.00     0.026 A 
BRANCH  10  13
ATOM     13  C           0      61.544  65.622  13.978  0.00  0.00     0.161 C 
BRANCH  13  14
ATOM     14  N           0      61.499  67.043  14.234  0.00  0.00    -0.351 N 
ATOM     15  C           0      60.555  67.661  15.085  0.00  0.00     0.275 C 
ATOM     16  O           0      59.700  66.935  15.658  0.00  0.00    -0.265 OA
ATOM     17  H           0      62.204  67.625  13.789  0.00  0.00     0.163 HD
BRANCH  15  18
ATOM     18  C           0      60.653  69.068  15.263  0.00  0.00     0.144 A 
ATOM     19  O           0      59.545  69.818  15.031  0.00  0.00    -0.301 OA
ATOM     20  C           0      59.888  71.116  15.266  0.00  0.00     0.119 A 
ATOM     21  C           0      61.222  71.199  15.649  0.00  0.00     0.003 A 
ATOM     22  C           0      59.039  72.215  15.145  0.00  0.00     0.102 A 
ATOM     23  C           0      61.709  69.865  15.643  0.00  0.00     0.057 A 
ATOM     24  C           0      61.761  72.465  15.935  0.00  0.00     0.014 A 
ATOM     25  C           0      60.932  73.590  15.822  0.00  0.00     0.004 A 
ATOM     26  C           0      59.595  73.464  15.434  0.00  0.00     0.040 A 
BRANCH  22  27
ATOM     27  O           0      57.734  72.096  14.767  0.00  0.00    -0.353 OA
ATOM     28  C           0      56.787  71.805  15.791  0.00  0.00     0.210 C 
ENDBRANCH  22  27
ENDBRANCH  15  18
ENDBRANCH  13  14
ENDBRANCH  10  13
ENDBRANCH   1   7
TORSDOF 6
ENDMDL
MODEL 4
REMARK VINA RESULT:      -7.0      3.320      5.625
REMARK  6 active torsions:
REMARK  status: ('A' for Active; 'I' for Inactive)
REMARK    1  A    between atoms: S_1  and  N_8 
REMARK    2  A    between atoms: S_1  and  C_15 
REMARK    3  A    between atoms: O_3  and  C_19 
REMARK    4  A    between atoms: N_7  and  C_11 
REMARK       I    between atoms: N_7  and  C_18 
REMARK    5  A    between atoms: C_10  and  C_11 
REMARK    6  A    between atoms: C_13  and  C_18 
ROOT
ATOM      1  S           0      64.575  65.173  11.834  0.00  0.00     0.256 S 
ATOM      2  O           0      65.081  64.045  12.603  0.00  0.00    -0.201 OA
ATOM      3  O           0      63.887  64.939  10.573  0.00  0.00    -0.201 OA
ENDROOT
BRANCH   1   4
ATOM      4  N           0      65.854  66.274  11.565  0.00  0.00    -0.324 N 
ATOM      5  H           0      65.909  67.099  12.175  0.00  0.00     0.169 HD
ATOM      6  H           0      66.131  66.456  10.592  0.00  0.00     0.169 HD
ENDBRANCH   1   4
BRANCH   1   7
ATOM      7  C           0      63.533  66.120  12.866  0.00  0.00     0.079 A 
ATOM      8  C           0      63.860  67.444  13.162  0.00  0.00     0.026 A 
ATOM      9  C           0      63.028  68.199  13.988  0.00  0.00     0.010 A 
ATOM     10  C           0      61.868  67.632  14.518  0.00  0.00    -0.040 A 
ATOM     11  C           0      61.542  66.308  14.222  0.00  0.00     0.010 A 
ATOM     12  C           0      62.374  65.553  13.397  0.00  0.00     0.026 A 
BRANCH  10  13
ATOM     13  C           0      60.971  68.447  15.407  0.00  0.00     0.161 C 
BRANCH  13  14
ATOM     14  N           0      60.965  69.845  15.043  0.00  0.00    -0.351 N 
ATOM     15  C           0      59.871  70.494  14.426  0.00  0.00     0.275 C 
ATOM     16  O           0      58.838  69.819  14.176  0.00  0.00    -0.265 OA
ATOM     17  H           0      61.791  70.394  15.265  0.00  0.00     0.163 HD
BRANCH  15  18
ATOM     18  C           0      60.001  71.884  14.153  0.00  0.00     0.144 A 
ATOM     19  O           0      60.089  72.271  12.855  0.00  0.00    -0.301 OA
ATOM     20  C           0      60.206  73.630  12.854  0.00  0.00     0.119 A 
ATOM     21  C           0      60.191  74.114  14.158  0.00  0.00     0.003 A 
ATOM     22  C           0      60.322  74.434  11.722  0.00  0.00     0.102 A 
ATOM     23  C           0      60.059  72.973  14.992  0.00  0.00     0.057 A 
ATOM     24  C           0      60.301  75.501  14.360  0.00  0.00     0.014 A 
ATOM     25  C           0      60.420  76.337  13.240  0.00  0.00     0.004 A 
ATOM     26  C           0      60.430  75.810  11.945  0.00  0.00     0.040 A 
BRANCH  22  27
ATOM     27  O           0      60.332  73.924  10.457  0.00  0.00    -0.353 OA
ATOM     28  C           0      60.125  74.842   9.387  0.00  0.00     0.210 C 
ENDBRANCH  22  27
ENDBRANCH  15  18
ENDBRANCH  13  14
ENDBRANCH  10  13
ENDBRANCH   1   7
TORSDOF 6
ENDMDL
MODEL 5
REMARK VINA RESULT:      -6.9     20.027     24.172
REMARK  6 active torsions:
REMARK  status: ('A' for Active; 'I' for Inactive)
REMARK    1  A    between atoms: S_1  and  N_8 
REMARK    2  A    between atoms: S_1  and  C_15 
REMARK    3  A    between atoms: O_3  and  C_19 
REMARK    4  A    between atoms: N_7  and  C_11 
REMARK       I    between atoms: N_7  and  C_18 
REMARK    5  A    between atoms: C_10  and  C_11 
REMARK    6  A    between atoms: C_13  and  C_18 
ROOT
ATOM      1  S           0      87.718  50.631  10.094  0.00  0.00     0.256 S 
ATOM      2  O           0      88.113  51.481  11.208  0.00  0.00    -0.201 OA
ATOM      3  O           0      88.317  49.313   9.942  0.00  0.00    -0.201 OA
ENDROOT
BRANCH   1   4
ATOM      4  N           0      87.928  51.500   8.637  0.00  0.00    -0.324 N 
ATOM      5  H           0      88.784  52.058   8.534  0.00  0.00     0.169 HD
ATOM      6  H           0      87.096  51.930   8.214  0.00  0.00     0.169 HD
ENDBRANCH   1   4
BRANCH   1   7
ATOM      7  C           0      85.982  50.451  10.127  0.00  0.00     0.079 A 
ATOM      8  C           0      85.229  50.734   8.988  0.00  0.00     0.026 A 
ATOM      9  C           0      83.842  50.591   9.015  0.00  0.00     0.010 A 
ATOM     10  C           0      83.207  50.165  10.182  0.00  0.00    -0.040 A 
ATOM     11  C           0      83.960  49.881  11.322  0.00  0.00     0.010 A 
ATOM     12  C           0      85.347  50.024  11.294  0.00  0.00     0.026 A 
BRANCH  10  13
ATOM     13  C           0      81.712  50.009  10.211  0.00  0.00     0.161 C 
BRANCH  13  14
ATOM     14  N           0      81.028  51.241   9.890  0.00  0.00    -0.351 N 
ATOM     15  C           0      80.401  51.493   8.648  0.00  0.00     0.275 C 
ATOM     16  O           0      80.437  50.596   7.766  0.00  0.00    -0.265 OA
ATOM     17  H           0      80.980  51.956  10.610  0.00  0.00     0.163 HD
BRANCH  15  18
ATOM     18  C           0      79.741  52.742   8.489  0.00  0.00     0.144 A 
ATOM     19  O           0      79.887  53.668   9.472  0.00  0.00    -0.301 OA
ATOM     20  C           0      79.170  54.764   9.093  0.00  0.00     0.119 A 
ATOM     21  C           0      78.562  54.540   7.862  0.00  0.00     0.003 A 
ATOM     22  C           0      79.052  55.948   9.820  0.00  0.00     0.102 A 
ATOM     23  C           0      78.939  53.225   7.481  0.00  0.00     0.057 A 
ATOM     24  C           0      77.776  55.563   7.306  0.00  0.00     0.014 A 
ATOM     25  C           0      77.637  56.766   8.013  0.00  0.00     0.004 A 
ATOM     26  C           0      78.265  56.952   9.248  0.00  0.00     0.040 A 
BRANCH  22  27
ATOM     27  O           0      79.663  56.134  11.024  0.00  0.00    -0.353 OA
ATOM     28  C           0      78.898  55.843  12.191  0.00  0.00     0.210 C 
ENDBRANCH  22  27
ENDBRANCH  15  18
ENDBRANCH  13  14
ENDBRANCH  10  13
ENDBRANCH   1   7
TORSDOF 6
ENDMDL
MODEL 6
REMARK VINA RESULT:      -6.7     19.634     24.073
REMARK  6 active torsions:
REMARK  status: ('A' for Active; 'I' for Inactive)
REMARK    1  A    between atoms: S_1  and  N_8 
REMARK    2  A    between atoms: S_1  and  C_15 
REMARK    3  A    between atoms: O_3  and  C_19 
REMARK    4  A    between atoms: N_7  and  C_11 
REMARK       I    between atoms: N_7  and  C_18 
REMARK    5  A    between atoms: C_10  and  C_11 
REMARK    6  A    between atoms: C_13  and  C_18 
ROOT
ATOM      1  S           0      87.428  49.440   8.251  0.00  0.00     0.256 S 
ATOM      2  O           0      87.041  48.093   8.647  0.00  0.00    -0.201 OA
ATOM      3  O           0      87.369  49.827   6.850  0.00  0.00    -0.201 OA
ENDROOT
BRANCH   1   4
ATOM      4  N           0      89.000  49.757   8.842  0.00  0.00    -0.324 N 
ATOM      5  H           0      89.639  50.286   8.236  0.00  0.00     0.169 HD
ATOM      6  H           0      89.460  49.021   9.391  0.00  0.00     0.169 HD
ENDBRANCH   1   4
BRANCH   1   7
ATOM      7  C           0      86.487  50.579   9.182  0.00  0.00     0.079 A 
ATOM      8  C           0      85.783  50.148  10.306  0.00  0.00     0.026 A 
ATOM      9  C           0      85.030  51.058  11.048  0.00  0.00     0.010 A 
ATOM     10  C           0      84.982  52.400  10.666  0.00  0.00    -0.040 A 
ATOM     11  C           0      85.686  52.830   9.542  0.00  0.00     0.010 A 
ATOM     12  C           0      86.439  51.921   8.800  0.00  0.00     0.026 A 
BRANCH  10  13
ATOM     13  C           0      84.172  53.380  11.467  0.00  0.00     0.161 C 
BRANCH  13  14
ATOM     14  N           0      83.047  53.898  10.723  0.00  0.00    -0.351 N 
ATOM     15  C           0      81.768  53.296  10.707  0.00  0.00     0.275 C 
ATOM     16  O           0      81.592  52.246  11.380  0.00  0.00    -0.265 OA
ATOM     17  H           0      83.184  54.758  10.198  0.00  0.00     0.163 HD
BRANCH  15  18
ATOM     18  C           0      80.750  53.938   9.950  0.00  0.00     0.144 A 
ATOM     19  O           0      80.301  55.144  10.384  0.00  0.00    -0.301 OA
ATOM     20  C           0      79.342  55.550   9.504  0.00  0.00     0.119 A 
ATOM     21  C           0      79.176  54.599   8.502  0.00  0.00     0.003 A 
ATOM     22  C           0      78.621  56.740   9.580  0.00  0.00     0.102 A 
ATOM     23  C           0      80.094  53.559   8.802  0.00  0.00     0.057 A 
ATOM     24  C           0      78.225  54.843   7.496  0.00  0.00     0.014 A 
ATOM     25  C           0      77.484  56.032   7.545  0.00  0.00     0.004 A 
ATOM     26  C           0      77.680  56.963   8.570  0.00  0.00     0.040 A 
BRANCH  22  27
ATOM     27  O           0      78.811  57.650  10.577  0.00  0.00    -0.353 OA
ATOM     28  C           0      79.732  58.708  10.323  0.00  0.00     0.210 C 
ENDBRANCH  22  27
ENDBRANCH  15  18
ENDBRANCH  13  14
ENDBRANCH  10  13
ENDBRANCH   1   7
TORSDOF 6
ENDMDL
MODEL 7
REMARK VINA RESULT:      -6.6     20.211     23.511
REMARK  6 active torsions:
REMARK  status: ('A' for Active; 'I' for Inactive)
REMARK    1  A    between atoms: S_1  and  N_8 
REMARK    2  A    between atoms: S_1  and  C_15 
REMARK    3  A    between atoms: O_3  and  C_19 
REMARK    4  A    between atoms: N_7  and  C_11 
REMARK       I    between atoms: N_7  and  C_18 
REMARK    5  A    between atoms: C_10  and  C_11 
REMARK    6  A    between atoms: C_13  and  C_18 
ROOT
ATOM      1  S           0      81.668  51.403   0.137  0.00  0.00     0.256 S 
ATOM      2  O           0      81.857  52.819  -0.142  0.00  0.00    -0.201 OA
ATOM      3  O           0      82.636  50.434  -0.354  0.00  0.00    -0.201 OA
ENDROOT
BRANCH   1   4
ATOM      4  N           0      80.111  50.940  -0.395  0.00  0.00    -0.324 N 
ATOM      5  H           0      79.802  49.982  -0.191  0.00  0.00     0.169 HD
ATOM      6  H           0      79.793  51.295  -1.306  0.00  0.00     0.169 HD
ENDBRANCH   1   4
BRANCH   1   7
ATOM      7  C           0      81.504  51.198   1.863  0.00  0.00     0.079 A 
ATOM      8  C           0      81.207  49.942   2.391  0.00  0.00     0.026 A 
ATOM      9  C           0      81.075  49.779   3.770  0.00  0.00     0.010 A 
ATOM     10  C           0      81.240  50.873   4.621  0.00  0.00    -0.040 A 
ATOM     11  C           0      81.537  52.129   4.093  0.00  0.00     0.010 A 
ATOM     12  C           0      81.669  52.292   2.714  0.00  0.00     0.026 A 
BRANCH  10  13
ATOM     13  C           0      81.099  50.697   6.107  0.00  0.00     0.161 C 
BRANCH  13  14
ATOM     14  N           0      80.715  51.922   6.769  0.00  0.00    -0.351 N 
ATOM     15  C           0      79.434  52.149   7.325  0.00  0.00     0.275 C 
ATOM     16  O           0      78.574  51.234   7.241  0.00  0.00    -0.265 OA
ATOM     17  H           0      81.416  52.652   6.857  0.00  0.00     0.163 HD
BRANCH  15  18
ATOM     18  C           0      79.212  53.396   7.972  0.00  0.00     0.144 A 
ATOM     19  O           0      80.168  53.848   8.825  0.00  0.00    -0.301 OA
ATOM     20  C           0      79.730  55.044   9.312  0.00  0.00     0.119 A 
ATOM     21  C           0      78.489  55.359   8.769  0.00  0.00     0.003 A 
ATOM     22  C           0      80.414  55.848  10.222  0.00  0.00     0.102 A 
ATOM     23  C           0      78.163  54.283   7.902  0.00  0.00     0.057 A 
ATOM     24  C           0      77.874  56.563   9.155  0.00  0.00     0.014 A 
ATOM     25  C           0      78.536  57.394  10.069  0.00  0.00     0.004 A 
ATOM     26  C           0      79.784  57.041  10.592  0.00  0.00     0.040 A 
BRANCH  22  27
ATOM     27  O           0      81.630  55.508  10.733  0.00  0.00    -0.353 OA
ATOM     28  C           0      82.779  55.874   9.972  0.00  0.00     0.210 C 
ENDBRANCH  22  27
ENDBRANCH  15  18
ENDBRANCH  13  14
ENDBRANCH  10  13
ENDBRANCH   1   7
TORSDOF 6
ENDMDL
MODEL 8
REMARK VINA RESULT:      -6.3      8.183     10.127
REMARK  6 active torsions:
REMARK  status: ('A' for Active; 'I' for Inactive)
REMARK    1  A    between atoms: S_1  and  N_8 
REMARK    2  A    between atoms: S_1  and  C_15 
REMARK    3  A    between atoms: O_3  and  C_19 
REMARK    4  A    between atoms: N_7  and  C_11 
REMARK       I    between atoms: N_7  and  C_18 
REMARK    5  A    between atoms: C_10  and  C_11 
REMARK    6  A    between atoms: C_13  and  C_18 
ROOT
ATOM      1  S           0      71.497  71.303  23.060  0.00  0.00     0.256 S 
ATOM      2  O           0      72.666  70.930  22.276  0.00  0.00    -0.201 OA
ATOM      3  O           0      71.643  72.206  24.192  0.00  0.00    -0.201 OA
ENDROOT
BRANCH   1   4
ATOM      4  N           0      70.713  69.880  23.590  0.00  0.00    -0.324 N 
ATOM      5  H           0      69.937  69.984  24.255  0.00  0.00     0.169 HD
ATOM      6  H           0      71.293  69.048  23.752  0.00  0.00     0.169 HD
ENDBRANCH   1   4
BRANCH   1   7
ATOM      7  C           0      70.296  71.961  21.977  0.00  0.00     0.079 A 
ATOM      8  C           0      70.114  73.342  21.893  0.00  0.00     0.026 A 
ATOM      9  C           0      69.154  73.867  21.029  0.00  0.00     0.010 A 
ATOM     10  C           0      68.375  73.012  20.248  0.00  0.00    -0.040 A 
ATOM     11  C           0      68.557  71.632  20.332  0.00  0.00     0.010 A 
ATOM     12  C           0      69.517  71.106  21.196  0.00  0.00     0.026 A 
BRANCH  10  13
ATOM     13  C           0      67.341  73.578  19.315  0.00  0.00     0.161 C 
BRANCH  13  14
ATOM     14  N           0      66.778  72.571  18.446  0.00  0.00    -0.351 N 
ATOM     15  C           0      65.394  72.298  18.349  0.00  0.00     0.275 C 
ATOM     16  O           0      64.600  72.969  19.060  0.00  0.00    -0.265 OA
ATOM     17  H           0      67.417  72.046  17.856  0.00  0.00     0.163 HD
BRANCH  15  18
ATOM     18  C           0      64.986  71.296  17.426  0.00  0.00     0.144 A 
ATOM     19  O           0      63.656  71.147  17.196  0.00  0.00    -0.301 OA
ATOM     20  C           0      63.521  70.140  16.288  0.00  0.00     0.119 A 
ATOM     21  C           0      64.771  69.641  15.934  0.00  0.00     0.003 A 
ATOM     22  C           0      62.315  69.664  15.775  0.00  0.00     0.102 A 
ATOM     23  C           0      65.713  70.399  16.679  0.00  0.00     0.057 A 
ATOM     24  C           0      64.835  68.591  15.002  0.00  0.00     0.014 A 
ATOM     25  C           0      63.639  68.091  14.468  0.00  0.00     0.004 A 
ATOM     26  C           0      62.403  68.620  14.850  0.00  0.00     0.040 A 
BRANCH  22  27
ATOM     27  O           0      61.108  70.178  16.145  0.00  0.00    -0.353 OA
ATOM     28  C           0      60.319  70.779  15.121  0.00  0.00     0.210 C 
ENDBRANCH  22  27
ENDBRANCH  15  18
ENDBRANCH  13  14
ENDBRANCH  10  13
ENDBRANCH   1   7
TORSDOF 6
ENDMDL
MODEL 9
REMARK VINA RESULT:      -6.3     19.759     23.548
REMARK  6 active torsions:
REMARK  status: ('A' for Active; 'I' for Inactive)
REMARK    1  A    between atoms: S_1  and  N_8 
REMARK    2  A    between atoms: S_1  and  C_15 
REMARK    3  A    between atoms: O_3  and  C_19 
REMARK    4  A    between atoms: N_7  and  C_11 
REMARK       I    between atoms: N_7  and  C_18 
REMARK    5  A    between atoms: C_10  and  C_11 
REMARK    6  A    between atoms: C_13  and  C_18 
ROOT
ATOM      1  S           0      82.356  52.483   0.144  0.00  0.00     0.256 S 
ATOM      2  O           0      83.252  53.619  -0.023  0.00  0.00    -0.201 OA
ATOM      3  O           0      82.591  51.260  -0.610  0.00  0.00    -0.201 OA
ENDROOT
BRANCH   1   4
ATOM      4  N           0      80.752  53.002  -0.139  0.00  0.00    -0.324 N 
ATOM      5  H           0      80.041  52.752   0.559  0.00  0.00     0.169 HD
ATOM      6  H           0      80.410  52.987  -1.107  0.00  0.00     0.169 HD
ENDBRANCH   1   4
BRANCH   1   7
ATOM      7  C           0      82.283  52.084   1.841  0.00  0.00     0.079 A 
ATOM      8  C           0      83.456  52.007   2.592  0.00  0.00     0.026 A 
ATOM      9  C           0      83.397  51.687   3.948  0.00  0.00     0.010 A 
ATOM     10  C           0      82.164  51.442   4.554  0.00  0.00    -0.040 A 
ATOM     11  C           0      80.991  51.519   3.804  0.00  0.00     0.010 A 
ATOM     12  C           0      81.050  51.839   2.448  0.00  0.00     0.026 A 
BRANCH  10  13
ATOM     13  C           0      82.101  51.099   6.016  0.00  0.00     0.161 C 
BRANCH  13  14
ATOM     14  N           0      81.415  52.110   6.787  0.00  0.00    -0.351 N 
ATOM     15  C           0      81.626  52.327   8.168  0.00  0.00     0.275 C 
ATOM     16  O           0      82.460  51.599   8.767  0.00  0.00    -0.265 OA
ATOM     17  H           0      80.758  52.712   6.297  0.00  0.00     0.163 HD
BRANCH  15  18
ATOM     18  C           0      80.898  53.381   8.785  0.00  0.00     0.144 A 
ATOM     19  O           0      79.926  53.992   8.059  0.00  0.00    -0.301 OA
ATOM     20  C           0      79.381  54.953   8.857  0.00  0.00     0.119 A 
ATOM     21  C           0      80.006  54.958  10.100  0.00  0.00     0.003 A 
ATOM     22  C           0      78.346  55.815   8.498  0.00  0.00     0.102 A 
ATOM     23  C           0      80.988  53.935  10.041  0.00  0.00     0.057 A 
ATOM     24  C           0      79.576  55.887  11.064  0.00  0.00     0.014 A 
ATOM     25  C           0      78.537  56.768  10.733  0.00  0.00     0.004 A 
ATOM     26  C           0      77.935  56.731   9.472  0.00  0.00     0.040 A 
BRANCH  22  27
ATOM     27  O           0      77.755  55.782   7.271  0.00  0.00    -0.353 OA
ATOM     28  C           0      77.741  56.997   6.525  0.00  0.00     0.210 C 
ENDBRANCH  22  27
ENDBRANCH  15  18
ENDBRANCH  13  14
ENDBRANCH  10  13
ENDBRANCH   1   7
TORSDOF 6
ENDMDL
