MODEL 1
REMARK VINA RESULT:      -7.8      0.000      0.000
REMARK  6 active torsions:
REMARK  status: ('A' for Active; 'I' for Inactive)
REMARK    1  A    between atoms: S_1  and  N_8 
REMARK    2  A    between atoms: S_1  and  C_15 
REMARK    3  A    between atoms: O_3  and  C_19 
REMARK    4  A    between atoms: N_7  and  C_11 
REMARK       I    between atoms: N_7  and  C_18 
REMARK    5  A    between atoms: C_10  and  C_11 
REMARK    6  A    between atoms: C_13  and  C_18 
ROOT
ATOM      1  S           0      25.697 -11.948 -37.092  0.00  0.00     0.256 S 
ATOM      2  O           0      24.758 -10.841 -36.971  0.00  0.00    -0.201 OA
ATOM      3  O           0      26.282 -12.534 -35.896  0.00  0.00    -0.201 OA
ENDROOT
BRANCH   1   4
ATOM      4  N           0      26.958 -11.486 -38.150  0.00  0.00    -0.324 N 
ATOM      5  H           0      27.339 -12.204 -38.779  0.00  0.00     0.169 HD
ATOM      6  H           0      27.660 -10.826 -37.795  0.00  0.00     0.169 HD
ENDBRANCH   1   4
BRANCH   1   7
ATOM      7  C           0      24.935 -13.217 -38.017  0.00  0.00     0.079 A 
ATOM      8  C           0      23.705 -12.989 -38.635  0.00  0.00     0.026 A 
ATOM      9  C           0      23.096 -14.004 -39.373  0.00  0.00     0.010 A 
ATOM     10  C           0      23.717 -15.248 -39.493  0.00  0.00    -0.040 A 
ATOM     11  C           0      24.947 -15.476 -38.876  0.00  0.00     0.010 A 
ATOM     12  C           0      25.556 -14.461 -38.138  0.00  0.00     0.026 A 
BRANCH  10  13
ATOM     13  C           0      23.062 -16.341 -40.290  0.00  0.00     0.161 C 
BRANCH  13  14
ATOM     14  N           0      24.011 -17.327 -40.751  0.00  0.00    -0.351 N 
ATOM     15  C           0      23.759 -18.718 -40.765  0.00  0.00     0.275 C 
ATOM     16  O           0      22.642 -19.129 -40.353  0.00  0.00    -0.265 OA
ATOM     17  H           0      24.904 -16.994 -41.104  0.00  0.00     0.163 HD
BRANCH  15  18
ATOM     18  C           0      24.781 -19.565 -41.275  0.00  0.00     0.144 A 
ATOM     19  O           0      25.439 -19.164 -42.393  0.00  0.00    -0.301 OA
ATOM     20  C           0      26.357 -20.130 -42.681  0.00  0.00     0.119 A 
ATOM     21  C           0      26.287 -21.154 -41.743  0.00  0.00     0.003 A 
ATOM     22  C           0      27.247 -20.111 -43.754  0.00  0.00     0.102 A 
ATOM     23  C           0      25.261 -20.778 -40.837  0.00  0.00     0.057 A 
ATOM     24  C           0      27.163 -22.246 -41.875  0.00  0.00     0.014 A 
ATOM     25  C           0      28.069 -22.257 -42.944  0.00  0.00     0.004 A 
ATOM     26  C           0      28.108 -21.206 -43.866  0.00  0.00     0.040 A 
BRANCH  22  27
ATOM     27  O           0      27.288 -19.088 -44.654  0.00  0.00    -0.353 OA
ATOM     28  C           0      27.876 -19.366 -45.923  0.00  0.00     0.210 C 
ENDBRANCH  22  27
ENDBRANCH  15  18
ENDBRANCH  13  14
ENDBRANCH  10  13
ENDBRANCH   1   7
TORSDOF 6
ENDMDL
MODEL 2
REMARK VINA RESULT:      -7.7     23.121     25.214
REMARK  6 active torsions:
REMARK  status: ('A' for Active; 'I' for Inactive)
REMARK    1  A    between atoms: S_1  and  N_8 
REMARK    2  A    between atoms: S_1  and  C_15 
REMARK    3  A    between atoms: O_3  and  C_19 
REMARK    4  A    between atoms: N_7  and  C_11 
REMARK       I    between atoms: N_7  and  C_18 
REMARK    5  A    between atoms: C_10  and  C_11 
REMARK    6  A    between atoms: C_13  and  C_18 
ROOT
ATOM      1  S           0      36.030   6.370 -45.114  0.00  0.00     0.256 S 
ATOM      2  O           0      36.423   5.546 -46.249  0.00  0.00    -0.201 OA
ATOM      3  O           0      34.813   7.165 -45.185  0.00  0.00    -0.201 OA
ENDROOT
BRANCH   1   4
ATOM      4  N           0      37.333   7.397 -44.702  0.00  0.00    -0.324 N 
ATOM      5  H           0      38.226   7.251 -45.188  0.00  0.00     0.169 HD
ATOM      6  H           0      37.434   7.667 -43.717  0.00  0.00     0.169 HD
ENDBRANCH   1   4
BRANCH   1   7
ATOM      7  C           0      35.948   5.353 -43.698  0.00  0.00     0.079 A 
ATOM      8  C           0      34.911   4.431 -43.560  0.00  0.00     0.026 A 
ATOM      9  C           0      34.844   3.619 -42.428  0.00  0.00     0.010 A 
ATOM     10  C           0      35.816   3.730 -41.432  0.00  0.00    -0.040 A 
ATOM     11  C           0      36.853   4.652 -41.569  0.00  0.00     0.010 A 
ATOM     12  C           0      36.919   5.464 -42.702  0.00  0.00     0.026 A 
BRANCH  10  13
ATOM     13  C           0      35.745   2.854 -40.212  0.00  0.00     0.161 C 
BRANCH  13  14
ATOM     14  N           0      36.887   3.031 -39.345  0.00  0.00    -0.351 N 
ATOM     15  C           0      37.980   2.136 -39.290  0.00  0.00     0.275 C 
ATOM     16  O           0      37.964   1.124 -40.038  0.00  0.00    -0.265 OA
ATOM     17  H           0      36.910   3.860 -38.757  0.00  0.00     0.163 HD
BRANCH  15  18
ATOM     18  C           0      39.047   2.458 -38.407  0.00  0.00     0.144 A 
ATOM     19  O           0      39.770   1.435 -37.883  0.00  0.00    -0.301 OA
ATOM     20  C           0      40.721   1.991 -37.080  0.00  0.00     0.119 A 
ATOM     21  C           0      40.607   3.377 -37.090  0.00  0.00     0.003 A 
ATOM     22  C           0      41.677   1.290 -36.348  0.00  0.00     0.102 A 
ATOM     23  C           0      39.518   3.669 -37.953  0.00  0.00     0.057 A 
ATOM     24  C           0      41.508   4.130 -36.316  0.00  0.00     0.014 A 
ATOM     25  C           0      42.481   3.454 -35.568  0.00  0.00     0.004 A 
ATOM     26  C           0      42.562   2.058 -35.585  0.00  0.00     0.040 A 
BRANCH  22  27
ATOM     27  O           0      41.760  -0.071 -36.362  0.00  0.00    -0.353 OA
ATOM     28  C           0      42.998  -0.649 -35.958  0.00  0.00     0.210 C 
ENDBRANCH  22  27
ENDBRANCH  15  18
ENDBRANCH  13  14
ENDBRANCH  10  13
ENDBRANCH   1   7
TORSDOF 6
ENDMDL
MODEL 3
REMARK VINA RESULT:      -7.4      6.082      8.584
REMARK  6 active torsions:
REMARK  status: ('A' for Active; 'I' for Inactive)
REMARK    1  A    between atoms: S_1  and  N_8 
REMARK    2  A    between atoms: S_1  and  C_15 
REMARK    3  A    between atoms: O_3  and  C_19 
REMARK    4  A    between atoms: N_7  and  C_11 
REMARK       I    between atoms: N_7  and  C_18 
REMARK    5  A    between atoms: C_10  and  C_11 
REMARK    6  A    between atoms: C_13  and  C_18 
ROOT
ATOM      1  S           0      26.687 -11.522 -38.963  0.00  0.00     0.256 S 
ATOM      2  O           0      26.445 -10.119 -38.661  0.00  0.00    -0.201 OA
ATOM      3  O           0      27.159 -12.416 -37.916  0.00  0.00    -0.201 OA
ENDROOT
BRANCH   1   4
ATOM      4  N           0      27.755 -11.623 -40.293  0.00  0.00    -0.324 N 
ATOM      5  H           0      27.364 -11.474 -41.232  0.00  0.00     0.169 HD
ATOM      6  H           0      28.495 -12.335 -40.258  0.00  0.00     0.169 HD
ENDBRANCH   1   4
BRANCH   1   7
ATOM      7  C           0      25.232 -12.196 -39.654  0.00  0.00     0.079 A 
ATOM      8  C           0      24.933 -11.981 -40.999  0.00  0.00     0.026 A 
ATOM      9  C           0      23.770 -12.518 -41.550  0.00  0.00     0.010 A 
ATOM     10  C           0      22.905 -13.272 -40.755  0.00  0.00    -0.040 A 
ATOM     11  C           0      23.204 -13.487 -39.410  0.00  0.00     0.010 A 
ATOM     12  C           0      24.367 -12.950 -38.859  0.00  0.00     0.026 A 
BRANCH  10  13
ATOM     13  C           0      21.652 -13.852 -41.349  0.00  0.00     0.161 C 
BRANCH  13  14
ATOM     14  N           0      20.588 -13.965 -40.379  0.00  0.00    -0.351 N 
ATOM     15  C           0      20.004 -15.192 -39.989  0.00  0.00     0.275 C 
ATOM     16  O           0      20.433 -16.253 -40.513  0.00  0.00    -0.265 OA
ATOM     17  H           0      20.257 -13.111 -39.940  0.00  0.00     0.163 HD
BRANCH  15  18
ATOM     18  C           0      18.984 -15.148 -38.999  0.00  0.00     0.144 A 
ATOM     19  O           0      18.918 -16.170 -38.107  0.00  0.00    -0.301 OA
ATOM     20  C           0      17.873 -15.902 -37.274  0.00  0.00     0.119 A 
ATOM     21  C           0      17.267 -14.703 -37.634  0.00  0.00     0.003 A 
ATOM     22  C           0      17.458 -16.700 -36.210  0.00  0.00     0.102 A 
ATOM     23  C           0      17.995 -14.223 -38.754  0.00  0.00     0.057 A 
ATOM     24  C           0      16.164 -14.257 -36.884  0.00  0.00     0.014 A 
ATOM     25  C           0      15.722 -15.039 -35.808  0.00  0.00     0.004 A 
ATOM     26  C           0      16.359 -16.239 -35.478  0.00  0.00     0.040 A 
BRANCH  22  27
ATOM     27  O           0      18.078 -17.870 -35.885  0.00  0.00    -0.353 OA
ATOM     28  C           0      17.503 -19.071 -36.394  0.00  0.00     0.210 C 
ENDBRANCH  22  27
ENDBRANCH  15  18
ENDBRANCH  13  14
ENDBRANCH  10  13
ENDBRANCH   1   7
TORSDOF 6
ENDMDL
MODEL 4
REMARK VINA RESULT:      -7.1     16.609     21.664
REMARK  6 active torsions:
REMARK  status: ('A' for Active; 'I' for Inactive)
REMARK    1  A    between atoms: S_1  and  N_8 
REMARK    2  A    between atoms: S_1  and  C_15 
REMARK    3  A    between atoms: O_3  and  C_19 
REMARK    4  A    between atoms: N_7  and  C_11 
REMARK       I    between atoms: N_7  and  C_18 
REMARK    5  A    between atoms: C_10  and  C_11 
REMARK    6  A    between atoms: C_13  and  C_18 
ROOT
ATOM      1  S           0      26.628  -8.864 -28.858  0.00  0.00     0.256 S 
ATOM      2  O           0      25.357  -9.572 -28.811  0.00  0.00    -0.201 OA
ATOM      3  O           0      26.783  -7.712 -29.733  0.00  0.00    -0.201 OA
ENDROOT
BRANCH   1   4
ATOM      4  N           0      27.870  -9.986 -29.204  0.00  0.00    -0.324 N 
ATOM      5  H           0      28.029 -10.233 -30.189  0.00  0.00     0.169 HD
ATOM      6  H           0      28.001 -10.769 -28.552  0.00  0.00     0.169 HD
ENDBRANCH   1   4
BRANCH   1   7
ATOM      7  C           0      27.054  -8.388 -27.233  0.00  0.00     0.079 A 
ATOM      8  C           0      26.262  -8.790 -26.158  0.00  0.00     0.026 A 
ATOM      9  C           0      26.601  -8.408 -24.860  0.00  0.00     0.010 A 
ATOM     10  C           0      27.734  -7.623 -24.637  0.00  0.00    -0.040 A 
ATOM     11  C           0      28.526  -7.221 -25.712  0.00  0.00     0.010 A 
ATOM     12  C           0      28.186  -7.603 -27.010  0.00  0.00     0.026 A 
BRANCH  10  13
ATOM     13  C           0      28.100  -7.213 -23.238  0.00  0.00     0.161 C 
BRANCH  13  14
ATOM     14  N           0      29.464  -6.746 -23.145  0.00  0.00    -0.351 N 
ATOM     15  C           0      30.281  -6.922 -22.004  0.00  0.00     0.275 C 
ATOM     16  O           0      29.797  -7.521 -21.008  0.00  0.00    -0.265 OA
ATOM     17  H           0      29.861  -6.283 -23.957  0.00  0.00     0.163 HD
BRANCH  15  18
ATOM     18  C           0      31.615  -6.433 -22.071  0.00  0.00     0.144 A 
ATOM     19  O           0      32.433  -6.673 -21.014  0.00  0.00    -0.301 OA
ATOM     20  C           0      33.640  -6.113 -21.313  0.00  0.00     0.119 A 
ATOM     21  C           0      33.594  -5.512 -22.566  0.00  0.00     0.003 A 
ATOM     22  C           0      34.768  -6.131 -20.494  0.00  0.00     0.102 A 
ATOM     23  C           0      32.276  -5.726 -23.048  0.00  0.00     0.057 A 
ATOM     24  C           0      34.752  -4.879 -23.050  0.00  0.00     0.014 A 
ATOM     25  C           0      35.903  -4.879 -22.250  0.00  0.00     0.004 A 
ATOM     26  C           0      35.908  -5.495 -20.995  0.00  0.00     0.040 A 
BRANCH  22  27
ATOM     27  O           0      34.777  -6.731 -19.270  0.00  0.00    -0.353 OA
ATOM     28  C           0      34.463  -5.914 -18.146  0.00  0.00     0.210 C 
ENDBRANCH  22  27
ENDBRANCH  15  18
ENDBRANCH  13  14
ENDBRANCH  10  13
ENDBRANCH   1   7
TORSDOF 6
ENDMDL
MODEL 5
REMARK VINA RESULT:      -7.0      3.374      3.908
REMARK  6 active torsions:
REMARK  status: ('A' for Active; 'I' for Inactive)
REMARK    1  A    between atoms: S_1  and  N_8 
REMARK    2  A    between atoms: S_1  and  C_15 
REMARK    3  A    between atoms: O_3  and  C_19 
REMARK    4  A    between atoms: N_7  and  C_11 
REMARK       I    between atoms: N_7  and  C_18 
REMARK    5  A    between atoms: C_10  and  C_11 
REMARK    6  A    between atoms: C_13  and  C_18 
ROOT
ATOM      1  S           0      21.190 -12.824 -42.089  0.00  0.00     0.256 S 
ATOM      2  O           0      20.821 -12.096 -40.883  0.00  0.00    -0.201 OA
ATOM      3  O           0      22.278 -12.336 -42.924  0.00  0.00    -0.201 OA
ENDROOT
BRANCH   1   4
ATOM      4  N           0      19.799 -13.022 -43.061  0.00  0.00    -0.324 N 
ATOM      5  H           0      19.923 -13.441 -43.991  0.00  0.00     0.169 HD
ATOM      6  H           0      19.085 -12.285 -43.027  0.00  0.00     0.169 HD
ENDBRANCH   1   4
BRANCH   1   7
ATOM      7  C           0      21.528 -14.480 -41.650  0.00  0.00     0.079 A 
ATOM      8  C           0      22.294 -14.760 -40.518  0.00  0.00     0.026 A 
ATOM      9  C           0      22.564 -16.082 -40.169  0.00  0.00     0.010 A 
ATOM     10  C           0      22.069 -17.127 -40.951  0.00  0.00    -0.040 A 
ATOM     11  C           0      21.303 -16.847 -42.083  0.00  0.00     0.010 A 
ATOM     12  C           0      21.032 -15.524 -42.432  0.00  0.00     0.026 A 
BRANCH  10  13
ATOM     13  C           0      22.359 -18.552 -40.573  0.00  0.00     0.161 C 
BRANCH  13  14
ATOM     14  N           0      23.415 -19.126 -41.374  0.00  0.00    -0.351 N 
ATOM     15  C           0      24.791 -18.881 -41.157  0.00  0.00     0.275 C 
ATOM     16  O           0      25.122 -18.119 -40.211  0.00  0.00    -0.265 OA
ATOM     17  H           0      23.149 -19.759 -42.124  0.00  0.00     0.163 HD
BRANCH  15  18
ATOM     18  C           0      25.717 -19.542 -42.011  0.00  0.00     0.144 A 
ATOM     19  O           0      26.042 -18.939 -43.184  0.00  0.00    -0.301 OA
ATOM     20  C           0      26.933 -19.755 -43.815  0.00  0.00     0.119 A 
ATOM     21  C           0      27.180 -20.885 -43.043  0.00  0.00     0.003 A 
ATOM     22  C           0      27.521 -19.510 -45.055  0.00  0.00     0.102 A 
ATOM     23  C           0      26.386 -20.736 -41.876  0.00  0.00     0.057 A 
ATOM     24  C           0      28.079 -21.849 -43.533  0.00  0.00     0.014 A 
ATOM     25  C           0      28.688 -21.631 -44.776  0.00  0.00     0.004 A 
ATOM     26  C           0      28.412 -20.481 -45.522  0.00  0.00     0.040 A 
BRANCH  22  27
ATOM     27  O           0      27.256 -18.390 -45.784  0.00  0.00    -0.353 OA
ATOM     28  C           0      26.340 -18.524 -46.868  0.00  0.00     0.210 C 
ENDBRANCH  22  27
ENDBRANCH  15  18
ENDBRANCH  13  14
ENDBRANCH  10  13
ENDBRANCH   1   7
TORSDOF 6
ENDMDL
MODEL 6
REMARK VINA RESULT:      -6.9      8.004      9.988
REMARK  6 active torsions:
REMARK  status: ('A' for Active; 'I' for Inactive)
REMARK    1  A    between atoms: S_1  and  N_8 
REMARK    2  A    between atoms: S_1  and  C_15 
REMARK    3  A    between atoms: O_3  and  C_19 
REMARK    4  A    between atoms: N_7  and  C_11 
REMARK       I    between atoms: N_7  and  C_18 
REMARK    5  A    between atoms: C_10  and  C_11 
REMARK    6  A    between atoms: C_13  and  C_18 
ROOT
ATOM      1  S           0      19.331 -10.103 -30.822  0.00  0.00     0.256 S 
ATOM      2  O           0      20.566  -9.350 -30.983  0.00  0.00    -0.201 OA
ATOM      3  O           0      18.359  -9.693 -29.820  0.00  0.00    -0.201 OA
ENDROOT
BRANCH   1   4
ATOM      4  N           0      19.719 -11.748 -30.568  0.00  0.00    -0.324 N 
ATOM      5  H           0      18.953 -12.432 -30.616  0.00  0.00     0.169 HD
ATOM      6  H           0      20.428 -11.967 -29.858  0.00  0.00     0.169 HD
ENDBRANCH   1   4
BRANCH   1   7
ATOM      7  C           0      18.530 -10.186 -32.371  0.00  0.00     0.079 A 
ATOM      8  C           0      17.137 -10.167 -32.439  0.00  0.00     0.026 A 
ATOM      9  C           0      16.498 -10.234 -33.676  0.00  0.00     0.010 A 
ATOM     10  C           0      17.251 -10.320 -34.848  0.00  0.00    -0.040 A 
ATOM     11  C           0      18.644 -10.340 -34.780  0.00  0.00     0.010 A 
ATOM     12  C           0      19.284 -10.272 -33.543  0.00  0.00     0.026 A 
BRANCH  10  13
ATOM     13  C           0      16.562 -10.391 -36.181  0.00  0.00     0.161 C 
BRANCH  13  14
ATOM     14  N           0      17.323 -11.145 -37.151  0.00  0.00    -0.351 N 
ATOM     15  C           0      16.803 -12.237 -37.883  0.00  0.00     0.275 C 
ATOM     16  O           0      15.608 -12.577 -37.684  0.00  0.00    -0.265 OA
ATOM     17  H           0      18.281 -10.856 -37.328  0.00  0.00     0.163 HD
BRANCH  15  18
ATOM     18  C           0      17.664 -12.864 -38.826  0.00  0.00     0.144 A 
ATOM     19  O           0      18.285 -12.076 -39.742  0.00  0.00    -0.301 OA
ATOM     20  C           0      19.044 -12.897 -40.521  0.00  0.00     0.119 A 
ATOM     21  C           0      18.910 -14.217 -40.103  0.00  0.00     0.003 A 
ATOM     22  C           0      19.846 -12.492 -41.587  0.00  0.00     0.102 A 
ATOM     23  C           0      18.012 -14.183 -39.003  0.00  0.00     0.057 A 
ATOM     24  C           0      19.623 -15.215 -40.790  0.00  0.00     0.014 A 
ATOM     25  C           0      20.438 -14.839 -41.867  0.00  0.00     0.004 A 
ATOM     26  C           0      20.546 -13.500 -42.256  0.00  0.00     0.040 A 
BRANCH  22  27
ATOM     27  O           0      19.955 -11.188 -41.969  0.00  0.00    -0.353 OA
ATOM     28  C           0      21.248 -10.733 -42.359  0.00  0.00     0.210 C 
ENDBRANCH  22  27
ENDBRANCH  15  18
ENDBRANCH  13  14
ENDBRANCH  10  13
ENDBRANCH   1   7
TORSDOF 6
ENDMDL
MODEL 7
REMARK VINA RESULT:      -6.8     21.558     24.522
REMARK  6 active torsions:
REMARK  status: ('A' for Active; 'I' for Inactive)
REMARK    1  A    between atoms: S_1  and  N_8 
REMARK    2  A    between atoms: S_1  and  C_15 
REMARK    3  A    between atoms: O_3  and  C_19 
REMARK    4  A    between atoms: N_7  and  C_11 
REMARK       I    between atoms: N_7  and  C_18 
REMARK    5  A    between atoms: C_10  and  C_11 
REMARK    6  A    between atoms: C_13  and  C_18 
ROOT
ATOM      1  S           0      27.593 -13.207 -18.153  0.00  0.00     0.256 S 
ATOM      2  O           0      27.661 -14.490 -17.468  0.00  0.00    -0.201 OA
ATOM      3  O           0      26.495 -12.294 -17.872  0.00  0.00    -0.201 OA
ENDROOT
BRANCH   1   4
ATOM      4  N           0      27.661 -13.480 -19.839  0.00  0.00    -0.324 N 
ATOM      5  H           0      28.551 -13.811 -20.232  0.00  0.00     0.169 HD
ATOM      6  H           0      27.154 -12.827 -20.449  0.00  0.00     0.169 HD
ENDBRANCH   1   4
BRANCH   1   7
ATOM      7  C           0      29.098 -12.362 -17.891  0.00  0.00     0.079 A 
ATOM      8  C           0      29.865 -12.637 -16.759  0.00  0.00     0.026 A 
ATOM      9  C           0      31.067 -11.962 -16.550  0.00  0.00     0.010 A 
ATOM     10  C           0      31.503 -11.010 -17.473  0.00  0.00    -0.040 A 
ATOM     11  C           0      30.736 -10.735 -18.605  0.00  0.00     0.010 A 
ATOM     12  C           0      29.534 -11.411 -18.815  0.00  0.00     0.026 A 
BRANCH  10  13
ATOM     13  C           0      32.799 -10.283 -17.248  0.00  0.00     0.161 C 
BRANCH  13  14
ATOM     14  N           0      33.098  -9.355 -18.314  0.00  0.00    -0.351 N 
ATOM     15  C           0      33.347  -7.978 -18.113  0.00  0.00     0.275 C 
ATOM     16  O           0      33.308  -7.527 -16.938  0.00  0.00    -0.265 OA
ATOM     17  H           0      33.152  -9.723 -19.260  0.00  0.00     0.163 HD
BRANCH  15  18
ATOM     18  C           0      33.657  -7.193 -19.258  0.00  0.00     0.144 A 
ATOM     19  O           0      32.737  -7.133 -20.256  0.00  0.00    -0.301 OA
ATOM     20  C           0      33.258  -6.333 -21.228  0.00  0.00     0.119 A 
ATOM     21  C           0      34.518  -5.877 -20.851  0.00  0.00     0.003 A 
ATOM     22  C           0      32.635  -6.005 -22.431  0.00  0.00     0.102 A 
ATOM     23  C           0      34.766  -6.442 -19.573  0.00  0.00     0.057 A 
ATOM     24  C           0      35.216  -5.033 -21.732  0.00  0.00     0.014 A 
ATOM     25  C           0      34.616  -4.685 -22.950  0.00  0.00     0.004 A 
ATOM     26  C           0      33.348  -5.165 -23.291  0.00  0.00     0.040 A 
BRANCH  22  27
ATOM     27  O           0      31.398  -6.470 -22.767  0.00  0.00    -0.353 OA
ATOM     28  C           0      30.891  -6.096 -24.046  0.00  0.00     0.210 C 
ENDBRANCH  22  27
ENDBRANCH  15  18
ENDBRANCH  13  14
ENDBRANCH  10  13
ENDBRANCH   1   7
TORSDOF 6
ENDMDL
MODEL 8
REMARK VINA RESULT:      -6.7     15.886     20.363
REMARK  6 active torsions:
REMARK  status: ('A' for Active; 'I' for Inactive)
REMARK    1  A    between atoms: S_1  and  N_8 
REMARK    2  A    between atoms: S_1  and  C_15 
REMARK    3  A    between atoms: O_3  and  C_19 
REMARK    4  A    between atoms: N_7  and  C_11 
REMARK       I    between atoms: N_7  and  C_18 
REMARK    5  A    between atoms: C_10  and  C_11 
REMARK    6  A    between atoms: C_13  and  C_18 
ROOT
ATOM      1  S           0      34.523  -6.404 -19.792  0.00  0.00     0.256 S 
ATOM      2  O           0      34.234  -5.435 -18.745  0.00  0.00    -0.201 OA
ATOM      3  O           0      34.438  -7.828 -19.503  0.00  0.00    -0.201 OA
ENDROOT
BRANCH   1   4
ATOM      4  N           0      36.067  -6.068 -20.443  0.00  0.00    -0.324 N 
ATOM      5  H           0      36.353  -5.083 -20.507  0.00  0.00     0.169 HD
ATOM      6  H           0      36.391  -6.647 -21.227  0.00  0.00     0.169 HD
ENDBRANCH   1   4
BRANCH   1   7
ATOM      7  C           0      33.501  -6.054 -21.164  0.00  0.00     0.079 A 
ATOM      8  C           0      32.296  -6.737 -21.328  0.00  0.00     0.026 A 
ATOM      9  C           0      31.480  -6.458 -22.424  0.00  0.00     0.010 A 
ATOM     10  C           0      31.870  -5.496 -23.358  0.00  0.00    -0.040 A 
ATOM     11  C           0      33.075  -4.814 -23.194  0.00  0.00     0.010 A 
ATOM     12  C           0      33.890  -5.092 -22.097  0.00  0.00     0.026 A 
BRANCH  10  13
ATOM     13  C           0      30.990  -5.195 -24.538  0.00  0.00     0.161 C 
BRANCH  13  14
ATOM     14  N           0      29.824  -6.047 -24.584  0.00  0.00    -0.351 N 
ATOM     15  C           0      29.195  -6.459 -25.781  0.00  0.00     0.275 C 
ATOM     16  O           0      29.674  -6.064 -26.876  0.00  0.00    -0.265 OA
ATOM     17  H           0      29.451  -6.384 -23.700  0.00  0.00     0.163 HD
BRANCH  15  18
ATOM     18  C           0      28.072  -7.324 -25.668  0.00  0.00     0.144 A 
ATOM     19  O           0      27.535  -7.822 -26.812  0.00  0.00    -0.301 OA
ATOM     20  C           0      26.486  -8.612 -26.446  0.00  0.00     0.119 A 
ATOM     21  C           0      26.351  -8.621 -25.062  0.00  0.00     0.003 A 
ATOM     22  C           0      25.658  -9.317 -27.318  0.00  0.00     0.102 A 
ATOM     23  C           0      27.384  -7.782 -24.568  0.00  0.00     0.057 A 
ATOM     24  C           0      25.317  -9.385 -24.493  0.00  0.00     0.014 A 
ATOM     25  C           0      24.467 -10.106 -25.344  0.00  0.00     0.004 A 
ATOM     26  C           0      24.637 -10.070 -26.731  0.00  0.00     0.040 A 
BRANCH  22  27
ATOM     27  O           0      25.821  -9.286 -28.671  0.00  0.00    -0.353 OA
ATOM     28  C           0      24.884  -8.513 -29.418  0.00  0.00     0.210 C 
ENDBRANCH  22  27
ENDBRANCH  15  18
ENDBRANCH  13  14
ENDBRANCH  10  13
ENDBRANCH   1   7
TORSDOF 6
ENDMDL
MODEL 9
REMARK VINA RESULT:      -6.5      8.852     12.924
REMARK  6 active torsions:
REMARK  status: ('A' for Active; 'I' for Inactive)
REMARK    1  A    between atoms: S_1  and  N_8 
REMARK    2  A    between atoms: S_1  and  C_15 
REMARK    3  A    between atoms: O_3  and  C_19 
REMARK    4  A    between atoms: N_7  and  C_11 
REMARK       I    between atoms: N_7  and  C_18 
REMARK    5  A    between atoms: C_10  and  C_11 
REMARK    6  A    between atoms: C_13  and  C_18 
ROOT
ATOM      1  S           0      22.417 -21.762 -54.782  0.00  0.00     0.256 S 
ATOM      2  O           0      20.969 -21.711 -54.635  0.00  0.00    -0.201 OA
ATOM      3  O           0      23.173 -20.527 -54.928  0.00  0.00    -0.201 OA
ENDROOT
BRANCH   1   4
ATOM      4  N           0      22.801 -22.798 -56.085  0.00  0.00    -0.324 N 
ATOM      5  H           0      22.347 -22.616 -56.989  0.00  0.00     0.169 HD
ATOM      6  H           0      22.933 -23.796 -55.878  0.00  0.00     0.169 HD
ENDBRANCH   1   4
BRANCH   1   7
ATOM      7  C           0      23.075 -22.660 -53.437  0.00  0.00     0.079 A 
ATOM      8  C           0      22.537 -22.500 -52.160  0.00  0.00     0.026 A 
ATOM      9  C           0      23.064 -23.216 -51.086  0.00  0.00     0.010 A 
ATOM     10  C           0      24.130 -24.094 -51.289  0.00  0.00    -0.040 A 
ATOM     11  C           0      24.668 -24.255 -52.565  0.00  0.00     0.010 A 
ATOM     12  C           0      24.141 -23.538 -53.639  0.00  0.00     0.026 A 
BRANCH  10  13
ATOM     13  C           0      24.697 -24.868 -50.131  0.00  0.00     0.161 C 
BRANCH  13  14
ATOM     14  N           0      25.229 -24.003 -49.103  0.00  0.00    -0.351 N 
ATOM     15  C           0      26.350 -24.326 -48.305  0.00  0.00     0.275 C 
ATOM     16  O           0      26.924 -25.430 -48.496  0.00  0.00    -0.265 OA
ATOM     17  H           0      24.779 -23.102 -48.965  0.00  0.00     0.163 HD
BRANCH  15  18
ATOM     18  C           0      26.777 -23.360 -47.352  0.00  0.00     0.144 A 
ATOM     19  O           0      26.978 -23.773 -46.075  0.00  0.00    -0.301 OA
ATOM     20  C           0      27.377 -22.681 -45.363  0.00  0.00     0.119 A 
ATOM     21  C           0      27.432 -21.563 -46.189  0.00  0.00     0.003 A 
ATOM     22  C           0      27.690 -22.667 -44.005  0.00  0.00     0.102 A 
ATOM     23  C           0      27.040 -22.015 -47.476  0.00  0.00     0.057 A 
ATOM     24  C           0      27.826 -20.334 -45.630  0.00  0.00     0.014 A 
ATOM     25  C           0      28.147 -20.287 -44.267  0.00  0.00     0.004 A 
ATOM     26  C           0      28.079 -21.435 -43.470  0.00  0.00     0.040 A 
BRANCH  22  27
ATOM     27  O           0      27.626 -23.783 -43.225  0.00  0.00    -0.353 OA
ATOM     28  C           0      27.185 -23.610 -41.881  0.00  0.00     0.210 C 
ENDBRANCH  22  27
ENDBRANCH  15  18
ENDBRANCH  13  14
ENDBRANCH  10  13
ENDBRANCH   1   7
TORSDOF 6
ENDMDL
