untitled
  ChemPy            3D                             0

 28 30  0  0  1  0  0  0  0  0999 V2000
   60.1220   67.6090   15.1430 C   0  0  0  0  0  0  0  0  0  0  0  0
   57.8710   68.0810   15.8830 C   0  0  0  0  0  0  0  0  0  0  0  0
   64.6530   65.0430   11.9160 C   0  0  0  0  0  0  0  0  0  0  0  0
   66.8120   65.8790   11.2220 C   0  0  0  0  0  0  0  0  0  0  0  0
   58.8760   67.1450   15.6000 C   0  0  0  0  0  0  0  0  0  0  0  0
   65.0640   63.7420   11.6270 C   0  0  0  0  0  0  0  0  0  0  0  0
   67.2220   64.5780   10.9330 C   0  0  0  0  0  0  0  0  0  0  0  0
   65.5270   66.1120   11.7130 C   0  0  0  0  0  0  0  0  0  0  0  0
   58.0950   69.4510   15.7170 C   0  0  0  0  0  0  0  0  0  0  0  0
   61.3510   67.0110   14.7620 C   0  0  0  0  0  0  0  0  0  0  0  0
   66.3480   63.5080   11.1360 C   0  0  0  0  0  0  0  0  0  0  0  0
   59.3270   69.9350   15.2640 C   0  0  0  0  0  0  0  0  0  0  0  0
   60.3050   68.9790   14.9920 C   0  0  0  0  0  0  0  0  0  0  0  0
   62.1910   68.0420   14.4070 C   0  0  0  0  0  0  0  0  0  0  0  0
   65.0850   67.5140   12.0260 C   0  0  0  0  0  0  0  0  0  0  0  0
   62.9890   67.2220   12.0940 H   0  0  0  0  0  0  0  0  0  0  0  0
   67.4760   61.7330   13.0540 H   0  0  0  0  0  0  0  0  0  0  0  0
   67.0480   60.1900   12.4200 H   0  0  0  0  0  0  0  0  0  0  0  0
   65.7940   61.2140   10.0390 O   0  0  0  0  0  0  0  0  0  0  0  0
   68.2020   61.9330   10.2090 O   0  0  0  0  0  0  0  0  0  0  0  0
   58.4130   72.0710   14.7580 C   0  0  0  0  0  0  0  0  0  0  0  0
   66.8620   61.8800   10.7720 S   0  0  0  0  0  0  0  0  0  0  0  0
   64.5120   68.4750   14.6140 O   0  0  0  0  0  0  0  0  0  0  0  0
   63.5360   68.0420   13.9460 C   0  0  0  0  0  0  0  0  0  0  0  0
   61.5650   69.2400   14.5430 O   0  0  0  0  0  0  0  0  0  0  0  0
   66.9530   61.2090   12.3420 N   0  0  0  0  0  0  0  0  0  0  0  0
   63.7790   67.5510   12.6430 N   0  0  0  0  0  0  0  0  0  0  0  0
   59.5410   71.2710   15.1030 O   0  0  0  0  0  0  0  0  0  0  0  0
  1  5  1  0  0  0  0
  1 10  1  0  0  0  0
  2  9  1  0  0  0  0
  3  8  1  0  0  0  0
  4  7  1  0  0  0  0
  5  2  1  0  0  0  0
  6  3  1  0  0  0  0
  8  4  1  0  0  0  0
  8 15  1  0  0  0  0
 11  6  1  0  0  0  0
 11  7  1  0  0  0  0
 12  9  1  0  0  0  0
 12 28  1  0  0  0  0
 13  1  1  0  0  0  0
 13 12  1  0  0  0  0
 14 10  1  0  0  0  0
 14 25  1  0  0  0  0
 15 27  1  0  0  0  0
 22 11  1  0  0  0  0
 22 19  1  0  0  0  0
 22 20  1  0  0  0  0
 22 26  1  0  0  0  0
 24 14  1  0  0  0  0
 24 23  1  0  0  0  0
 25 13  1  0  0  0  0
 26 17  1  0  0  0  0
 26 18  1  0  0  0  0
 27 16  1  0  0  0  0
 27 24  1  0  0  0  0
 28 21  1  0  0  0  0
M  END
